  
       XFOIL         Version 6.96
  
 Calculated polar for: FX 79-W-660A                                    
  
 1 1 Reynolds number fixed          Mach number fixed         
  
 xtrf =   1.000 (top)        1.000 (bottom)  
 Mach =   0.000     Re =     0.500 e 6     Ncrit =   5.000
  
   alpha    CL        CD       CDp       CM     Top_Xtr  Bot_Xtr
  ------ -------- --------- --------- -------- -------- --------
 -15.500  -0.4707   0.13442   0.12756  -0.0244   0.6776   0.4298
 -14.500  -0.4500   0.12660   0.11968  -0.0245   0.6741   0.4511
 -14.250  -0.4169   0.12674   0.11984  -0.0286   0.6729   0.4524
 -14.000  -0.3837   0.12686   0.11998  -0.0327   0.6718   0.4535
 -13.750  -0.3506   0.12698   0.12012  -0.0368   0.6706   0.4545
 -13.500  -0.3196   0.12697   0.12011  -0.0406   0.6692   0.4557
 -13.000  -0.3938   0.11669   0.10966  -0.0275   0.6676   0.4739
 -12.750  -0.3589   0.11703   0.11002  -0.0318   0.6659   0.4753
 -12.500  -0.3285   0.11714   0.11013  -0.0352   0.6637   0.4764
 -12.250  -0.2954   0.11731   0.11030  -0.0393   0.6619   0.4776
 -11.250  -0.3333   0.10523   0.09797  -0.0286   0.6566   0.4967
 -11.000  -0.2971   0.10530   0.09803  -0.0334   0.6545   0.4980
 -10.750  -0.2626   0.10528   0.09801  -0.0379   0.6529   0.4992
 -10.500  -0.2336   0.10529   0.09806  -0.0412   0.6519   0.5004
 -10.250  -0.2029   0.10540   0.09821  -0.0447   0.6506   0.5017
 -10.000  -0.1759   0.10519   0.09802  -0.0477   0.6493   0.5030
  -9.750  -0.1517   0.10477   0.09761  -0.0502   0.6478   0.5045
  -9.250  -0.2679   0.09249   0.08509  -0.0273   0.6458   0.5207
  -9.000  -0.2362   0.09268   0.08532  -0.0309   0.6435   0.5224
  -8.750  -0.2086   0.09265   0.08532  -0.0339   0.6410   0.5240
  -8.500  -0.1792   0.09263   0.08532  -0.0372   0.6389   0.5258
  -8.250  -0.1578   0.09209   0.08478  -0.0391   0.6368   0.5274
  -8.000  -0.1416   0.09122   0.08390  -0.0401   0.6347   0.5293
  -7.750  -0.1540   0.08844   0.08106  -0.0359   0.6331   0.5332
  -7.500  -0.2230   0.08209   0.07453  -0.0213   0.6319   0.5405
  -7.250  -0.2549   0.07825   0.07056  -0.0131   0.6303   0.5443
  -7.000  -0.2306   0.07793   0.07023  -0.0154   0.6280   0.5462
  -6.750  -0.2110   0.07730   0.06964  -0.0168   0.6264   0.5485
  -6.500  -0.1991   0.07620   0.06857  -0.0168   0.6249   0.5510
  -6.250  -0.1961   0.07460   0.06696  -0.0149   0.6230   0.5537
  -6.000  -0.2064   0.07225   0.06457  -0.0104   0.6206   0.5572
  -5.750  -0.2281   0.06929   0.06153  -0.0033   0.6182   0.5609
  -5.500  -0.2456   0.06679   0.05892   0.0034   0.6152   0.5638
  -5.250  -0.2568   0.06472   0.05675   0.0091   0.6126   0.5659
  -5.000  -0.2500   0.06380   0.05578   0.0110   0.6095   0.5678
  -4.750  -0.2390   0.06321   0.05518   0.0121   0.6065   0.5700
  -4.500  -0.2334   0.06255   0.05448   0.0146   0.6032   0.5719
  -4.250  -0.2241   0.06182   0.05377   0.0162   0.6005   0.5739
  -4.000  -0.2153   0.06111   0.05305   0.0180   0.5975   0.5758
  -3.750  -0.2052   0.06053   0.05246   0.0195   0.5941   0.5778
  -3.500  -0.1969   0.05994   0.05183   0.0215   0.5905   0.5797
  -3.250  -0.1900   0.05937   0.05121   0.0239   0.5867   0.5816
  -3.000  -0.1811   0.05907   0.05083   0.0259   0.5820   0.5833
  -2.750  -0.1703   0.05879   0.05048   0.0274   0.5781   0.5850
  -2.500  -0.1552   0.05844   0.05012   0.0278   0.5754   0.5865
  -2.250  -0.1410   0.05810   0.04975   0.0284   0.5728   0.5879
  -2.000  -0.1286   0.05778   0.04938   0.0296   0.5699   0.5891
  -1.750  -0.1181   0.05747   0.04902   0.0312   0.5668   0.5900
  -1.500  -0.1004   0.05756   0.04910   0.0309   0.5635   0.5917
  -1.250  -0.0842   0.05771   0.04925   0.0311   0.5602   0.5937
  -1.000  -0.0720   0.05793   0.04946   0.0322   0.5562   0.5955
  -0.750  -0.0589   0.05816   0.04968   0.0331   0.5530   0.5972
  -0.500  -0.0450   0.05840   0.04997   0.0338   0.5508   0.5990
  -0.250  -0.0301   0.05867   0.05026   0.0342   0.5482   0.6005
   0.000  -0.0151   0.05898   0.05058   0.0346   0.5451   0.6019
   0.250  -0.0010   0.05934   0.05094   0.0351   0.5416   0.6035
   0.500   0.0120   0.05979   0.05138   0.0359   0.5381   0.6049
   0.750   0.0216   0.06044   0.05200   0.0374   0.5343   0.6063
   1.000   0.0260   0.06135   0.05289   0.0402   0.5304   0.6076
   1.250   0.0365   0.06206   0.05361   0.0414   0.5273   0.6089
   1.500   0.0470   0.06282   0.05439   0.0425   0.5243   0.6101
   1.750   0.0545   0.06378   0.05536   0.0442   0.5203   0.6112
   2.000   0.0585   0.06497   0.05656   0.0466   0.5157   0.6122
   2.250   0.0582   0.06640   0.05797   0.0498   0.5105   0.6131
   2.500   0.0522   0.06820   0.05973   0.0541   0.5048   0.6138
   2.750   0.0579   0.06943   0.06098   0.0558   0.5010   0.6145
   3.000   0.0617   0.07109   0.06268   0.0575   0.4953   0.6155
   3.250   0.0587   0.07332   0.06494   0.0604   0.4876   0.6171
   3.500   0.0472   0.07599   0.06760   0.0648   0.4796   0.6185
   3.750   0.0474   0.07796   0.06963   0.0668   0.4718   0.6198
   4.000   0.0308   0.08097   0.07262   0.0719   0.4600   0.6210
   4.250   0.0214   0.08353   0.07518   0.0756   0.4498   0.6222
   4.500   0.0040   0.08663   0.07825   0.0806   0.4365   0.6233
   4.750  -0.0030   0.08911   0.08071   0.0837   0.4282   0.6245
   5.000  -0.0065   0.09141   0.08299   0.0860   0.4201   0.6256
   5.250  -0.0063   0.09346   0.08500   0.0876   0.4133   0.6268
   5.500  -0.0013   0.09526   0.08679   0.0882   0.4079   0.6279
   5.750   0.0061   0.09691   0.08846   0.0884   0.4041   0.6293
   6.000   0.0187   0.09828   0.08983   0.0876   0.4008   0.6304
   6.250   0.0319   0.09954   0.09107   0.0868   0.3976   0.6318
   6.500   0.0453   0.10082   0.09234   0.0858   0.3946   0.6331
   6.750   0.0589   0.10206   0.09356   0.0848   0.3920   0.6345
   7.000   0.0728   0.10336   0.09483   0.0837   0.3890   0.6355
   7.250   0.0893   0.10448   0.09592   0.0820   0.3863   0.6365
   7.500   0.1053   0.10569   0.09715   0.0804   0.3852   0.6374
   7.750   0.1221   0.10684   0.09832   0.0787   0.3840   0.6383
   8.000   0.1402   0.10783   0.09931   0.0768   0.3829   0.6392
   8.250   0.1589   0.10884   0.10033   0.0747   0.3816   0.6401
   8.500   0.1800   0.10997   0.10150   0.0719   0.3803   0.6418
   8.750   0.2004   0.11101   0.10257   0.0693   0.3791   0.6435
   9.000   0.2204   0.11199   0.10358   0.0669   0.3780   0.6451
   9.250   0.2395   0.11300   0.10461   0.0646   0.3767   0.6465
   9.500   0.2584   0.11401   0.10565   0.0624   0.3754   0.6478
   9.750   0.2768   0.11504   0.10670   0.0602   0.3742   0.6490
  10.000   0.2930   0.11622   0.10790   0.0584   0.3728   0.6504
  10.250   0.3075   0.11754   0.10923   0.0569   0.3712   0.6516
  10.500   0.3239   0.11869   0.11039   0.0550   0.3695   0.6531
  10.750   0.3418   0.11969   0.11139   0.0529   0.3679   0.6547
  11.000   0.3618   0.12054   0.11225   0.0504   0.3666   0.6563
  11.250   0.3839   0.12126   0.11296   0.0476   0.3653   0.6577
  11.500   0.4074   0.12185   0.11355   0.0446   0.3641   0.6592
  11.750   0.4319   0.12239   0.11408   0.0413   0.3629   0.6604
  12.000   0.4508   0.12340   0.11513   0.0389   0.3625   0.6615
  12.250   0.4690   0.12448   0.11623   0.0366   0.3620   0.6626
  12.500   0.4872   0.12554   0.11733   0.0342   0.3614   0.6636
  12.750   0.5046   0.12666   0.11848   0.0320   0.3608   0.6645
  13.000   0.5190   0.12805   0.11992   0.0301   0.3600   0.6657
  13.250   0.5330   0.12944   0.12136   0.0283   0.3592   0.6674
  13.500   0.5487   0.13062   0.12260   0.0264   0.3584   0.6691
  13.750   0.5650   0.13170   0.12374   0.0243   0.3576   0.6711
  14.000   0.5810   0.13280   0.12490   0.0223   0.3567   0.6729
  14.250   0.5972   0.13390   0.12604   0.0203   0.3558   0.6747
  14.500   0.6129   0.13502   0.12721   0.0182   0.3549   0.6765
  14.750   0.6285   0.13618   0.12840   0.0162   0.3540   0.6781
  15.000   0.6397   0.13768   0.12995   0.0148   0.3529   0.6798
  15.250   0.6526   0.13906   0.13136   0.0131   0.3518   0.6813
