  
       XFOIL         Version 6.96
  
 Calculated polar for: UNIVERSITY OF ALBERTA UA 79-SF-187 AIRFOIL MAIN 
  
 1 1 Reynolds number fixed          Mach number fixed         
  
 xtrf =   1.000 (top)        1.000 (bottom)  
 Mach =   0.000     Re =     1.000 e 6     Ncrit =   5.000
  
   alpha    CL        CD       CDp       CM     Top_Xtr  Bot_Xtr
  ------ -------- --------- --------- -------- -------- --------
 -19.750  -0.0129   0.07125   0.06912   0.0131   0.5553   0.0297
 -19.500  -0.0097   0.07052   0.06838   0.0110   0.5544   0.0298
 -19.250  -0.0066   0.06979   0.06765   0.0088   0.5534   0.0299
 -19.000  -0.0032   0.06909   0.06695   0.0066   0.5527   0.0299
 -18.750   0.0003   0.06837   0.06623   0.0043   0.5521   0.0300
 -18.500   0.0048   0.06777   0.06563   0.0018   0.5514   0.0302
 -18.250   0.0092   0.06720   0.06507  -0.0008   0.5506   0.0304
 -18.000   0.0132   0.06660   0.06447  -0.0032   0.5499   0.0307
 -17.750   0.0172   0.06597   0.06384  -0.0056   0.5491   0.0309
 -17.500   0.0211   0.06532   0.06320  -0.0080   0.5483   0.0313
 -17.250   0.0250   0.06467   0.06254  -0.0104   0.5475   0.0317
 -17.000   0.0288   0.06398   0.06186  -0.0127   0.5468   0.0323
 -16.750   0.0324   0.06325   0.06113  -0.0149   0.5459   0.0329
 -16.500   0.0359   0.06250   0.06038  -0.0171   0.5452   0.0332
 -16.250   0.0388   0.06168   0.05955  -0.0191   0.5444   0.0335
 -16.000   0.0420   0.06089   0.05877  -0.0212   0.5436   0.0336
 -15.750   0.0450   0.06009   0.05796  -0.0231   0.5426   0.0336
 -15.500   0.0480   0.05931   0.05718  -0.0251   0.5416   0.0337
 -15.250   0.0516   0.05854   0.05642  -0.0273   0.5406   0.0337
 -15.000   0.0568   0.05795   0.05582  -0.0301   0.5394   0.0340
 -14.750   0.0606   0.05724   0.05511  -0.0324   0.5382   0.0341
 -14.500   0.0651   0.05666   0.05453  -0.0349   0.5373   0.0345
 -14.250   0.0688   0.05593   0.05379  -0.0371   0.5363   0.0346
 -14.000   0.0729   0.05527   0.05313  -0.0395   0.5353   0.0350
 -13.750   0.0768   0.05459   0.05244  -0.0417   0.5342   0.0356
 -13.500   0.0805   0.05385   0.05170  -0.0439   0.5336   0.0359
 -13.250   0.0840   0.05308   0.05094  -0.0460   0.5329   0.0367
 -13.000   0.0866   0.05217   0.05004  -0.0478   0.5321   0.0374
 -12.750   0.0901   0.05139   0.04926  -0.0498   0.5315   0.0374
 -12.250   0.0976   0.04981   0.04770  -0.0542   0.5295   0.0351
 -11.750   0.1015   0.04762   0.04550  -0.0570   0.5278   0.0334
 -11.500   0.1053   0.04689   0.04477  -0.0591   0.5269   0.0333
 -11.250   0.1083   0.04602   0.04391  -0.0610   0.5261   0.0333
 -11.000   0.1115   0.04519   0.04308  -0.0628   0.5253   0.0333
 -10.750   0.1148   0.04438   0.04228  -0.0648   0.5245   0.0332
 -10.500   0.1175   0.04346   0.04135  -0.0664   0.5237   0.0333
 -10.250   0.1173   0.04208   0.03997  -0.0668   0.5230   0.0337
 -10.000   0.1219   0.04151   0.03941  -0.0693   0.5222   0.0339
  -9.750   0.1262   0.04090   0.03880  -0.0716   0.5214   0.0341
  -9.500   0.1307   0.04036   0.03826  -0.0740   0.5205   0.0344
  -9.250   0.1348   0.03973   0.03764  -0.0763   0.5197   0.0348
  -9.000   0.1378   0.03893   0.03684  -0.0780   0.5189   0.0351
  -8.750   0.1408   0.03813   0.03603  -0.0797   0.5182   0.0353
  -8.500   0.1434   0.03726   0.03516  -0.0813   0.5173   0.0353
  -8.250   0.1460   0.03643   0.03433  -0.0828   0.5165   0.0356
  -8.000   0.1486   0.03559   0.03349  -0.0843   0.5158   0.0359
  -7.750   0.1505   0.03465   0.03256  -0.0855   0.5151   0.0363
  -7.250   0.1503   0.03223   0.03016  -0.0861   0.5138   0.0380
  -7.000   0.1545   0.03171   0.02965  -0.0883   0.5129   0.0382
  -6.750   0.1586   0.03119   0.02914  -0.0905   0.5119   0.0386
  -6.500   0.1616   0.03051   0.02847  -0.0921   0.5109   0.0389
  -5.500   0.0123   0.00957   0.00721  -0.0242   0.5115   0.0510
  -5.250   0.0213   0.00954   0.00719  -0.0285   0.5102   0.0513
  -5.000   0.0304   0.00952   0.00719  -0.0329   0.5089   0.0516
  -4.750   0.0393   0.00946   0.00713  -0.0372   0.5077   0.0520
  -4.500   0.0478   0.00934   0.00699  -0.0413   0.5064   0.0525
  -4.250   0.0561   0.00913   0.00675  -0.0453   0.5051   0.0531
  -4.000   0.0637   0.00879   0.00634  -0.0491   0.5039   0.0540
  -3.750   0.0703   0.00815   0.00556  -0.0523   0.5027   0.0555
  -3.500   0.0797   0.00807   0.00548  -0.0568   0.5015   0.0559
  -3.250   0.0893   0.00804   0.00544  -0.0615   0.5004   0.0563
  -3.000   0.0990   0.00802   0.00542  -0.0663   0.4992   0.0568
  -2.750   0.1084   0.00797   0.00537  -0.0708   0.4980   0.0574
  -2.500   0.1176   0.00789   0.00528  -0.0753   0.4967   0.0582
  -2.250   0.1267   0.00772   0.00508  -0.0797   0.4953   0.0593
  -2.000   0.1355   0.00745   0.00474  -0.0840   0.4938   0.0607
  -1.750   0.1450   0.00741   0.00470  -0.0886   0.4923   0.0611
  -1.500   0.1546   0.00737   0.00467  -0.0933   0.4908   0.0616
  -1.250   0.1643   0.00733   0.00463  -0.0979   0.4892   0.0622
  -1.000   0.1739   0.00727   0.00455  -0.1026   0.4876   0.0630
  -0.750   0.1835   0.00718   0.00443  -0.1073   0.4862   0.0642
  -0.500   0.1931   0.00703   0.00422  -0.1120   0.4847   0.0656
  -0.250   0.2029   0.00694   0.00411  -0.1167   0.4833   0.0664
   0.000   0.2125   0.00692   0.00408  -0.1214   0.4820   0.0669
   0.250   0.2218   0.00689   0.00408  -0.1258   0.4803   0.0676
   0.500   0.2310   0.00687   0.00405  -0.1303   0.4784   0.0686
   0.750   0.2404   0.00682   0.00400  -0.1348   0.4765   0.0698
   1.000   0.2497   0.00675   0.00390  -0.1392   0.4746   0.0711
   1.250   0.2591   0.00669   0.00383  -0.1437   0.4727   0.0720
   1.500   0.2684   0.00664   0.00378  -0.1483   0.4709   0.0727
   1.750   0.2779   0.00660   0.00374  -0.1528   0.4693   0.0736
   2.000   0.2874   0.00657   0.00369  -0.1574   0.4678   0.0747
   2.250   0.2968   0.00654   0.00364  -0.1619   0.4663   0.0760
   2.500   0.3054   0.00653   0.00363  -0.1659   0.4642   0.0772
   2.750   0.3141   0.00651   0.00362  -0.1700   0.4622   0.0781
   3.000   0.3227   0.00650   0.00362  -0.1741   0.4602   0.0789
   3.250   0.3314   0.00649   0.00363  -0.1782   0.4583   0.0800
   3.500   0.3400   0.00648   0.00362  -0.1823   0.4565   0.0812
   3.750   0.3487   0.00646   0.00359  -0.1863   0.4546   0.0825
   4.000   0.3573   0.00644   0.00355  -0.1904   0.4528   0.0837
   4.250   0.3659   0.00642   0.00352  -0.1944   0.4512   0.0847
   4.500   0.3730   0.00644   0.00358  -0.1976   0.4487   0.0857
   4.750   0.3800   0.00647   0.00362  -0.2008   0.4461   0.0870
   5.000   0.3866   0.00649   0.00365  -0.2037   0.4436   0.0882
   5.250   0.3925   0.00650   0.00366  -0.2063   0.4411   0.0894
   5.500   0.3985   0.00651   0.00366  -0.2089   0.4387   0.0905
   5.750   0.4048   0.00653   0.00367  -0.2116   0.4364   0.0915
   6.000   0.4097   0.00662   0.00378  -0.2137   0.4338   0.0927
   6.250   0.4144   0.00672   0.00391  -0.2156   0.4309   0.0941
   6.500   0.4193   0.00684   0.00403  -0.2176   0.4283   0.0955
   6.750   0.4242   0.00695   0.00415  -0.2196   0.4258   0.0968
   7.000   0.4291   0.00707   0.00426  -0.2216   0.4233   0.0980
   7.250   0.4338   0.00721   0.00439  -0.2236   0.4209   0.0994
   7.500   0.4363   0.00746   0.00467  -0.2244   0.4182   0.1007
   7.750   0.4379   0.00776   0.00499  -0.2247   0.4147   0.1021
   8.000   0.4397   0.00809   0.00532  -0.2252   0.4113   0.1039
   8.250   0.4423   0.00841   0.00563  -0.2261   0.4081   0.1055
   8.750   0.4417   0.00951   0.00676  -0.2251   0.4009   0.1086
   9.000   0.4403   0.01020   0.00747  -0.2240   0.3967   0.1101
   9.250   0.4419   0.01071   0.00798  -0.2245   0.3929   0.1128
   9.500   0.4432   0.01126   0.00853  -0.2248   0.3894   0.1159
  10.000   0.4338   0.01338   0.01070  -0.2197   0.3787   0.1213
  10.250   0.4383   0.01368   0.01103  -0.2216   0.3753   0.1557
  10.750   0.4270   0.01610   0.01353  -0.2156   0.3618   0.2182
  11.000   0.4229   0.01726   0.01472  -0.2134   0.3548   0.2304
  11.250   0.4226   0.01808   0.01556  -0.2131   0.3478   0.2609
  11.500   0.4225   0.01888   0.01646  -0.2128   0.3412   0.3856
  11.750   0.4239   0.01957   0.01721  -0.2133   0.3347   0.4821
  12.000   0.4273   0.02007   0.01772  -0.2147   0.3295   0.5185
  12.250   0.4278   0.02075   0.01858  -0.2147   0.3236   0.7058
  12.500   0.4378   0.02130   0.01925  -0.2197   0.3182   1.0000
  12.750   0.4407   0.02193   0.01986  -0.2209   0.3140   1.0000
  13.000   0.4431   0.02263   0.02055  -0.2219   0.3096   1.0000
  13.250   0.4465   0.02321   0.02111  -0.2233   0.3055   1.0000
  13.500   0.4512   0.02364   0.02151  -0.2253   0.3019   1.0000
  13.750   0.4525   0.02449   0.02237  -0.2257   0.2982   1.0000
  14.000   0.4545   0.02526   0.02313  -0.2265   0.2941   1.0000
  14.250   0.4578   0.02587   0.02373  -0.2278   0.2902   1.0000
  14.500   0.4625   0.02632   0.02415  -0.2298   0.2867   1.0000
  14.750   0.4630   0.02729   0.02513  -0.2299   0.2827   1.0000
  15.000   0.4642   0.02818   0.02603  -0.2303   0.2783   1.0000
  15.250   0.4671   0.02885   0.02669  -0.2314   0.2744   1.0000
  15.500   0.4714   0.02936   0.02717  -0.2332   0.2711   1.0000
  15.750   0.4716   0.03040   0.02824  -0.2332   0.2670   1.0000
  16.000   0.4729   0.03130   0.02915  -0.2336   0.2626   1.0000
  16.250   0.4757   0.03200   0.02983  -0.2348   0.2587   1.0000
  16.500   0.4784   0.03272   0.03055  -0.2358   0.2550   1.0000
  16.750   0.4788   0.03374   0.03158  -0.2359   0.2504   1.0000
  17.000   0.4808   0.03456   0.03239  -0.2366   0.2461   1.0000
  17.250   0.4840   0.03520   0.03301  -0.2380   0.2426   1.0000
  17.500   0.4858   0.03604   0.03386  -0.2387   0.2394   1.0000
  17.750   0.4878   0.03686   0.03469  -0.2394   0.2360   1.0000
  18.000   0.4904   0.03757   0.03539  -0.2405   0.2327   1.0000
  18.250   0.4940   0.03816   0.03595  -0.2419   0.2299   1.0000
  18.500   0.4967   0.03887   0.03667  -0.2430   0.2274   1.0000
  18.750   0.4986   0.03968   0.03749  -0.2438   0.2246   1.0000
  19.000   0.5014   0.04037   0.03818  -0.2449   0.2221   1.0000
  19.250   0.5047   0.04097   0.03877  -0.2462   0.2199   1.0000
