  
       XFOIL         Version 6.96
  
 Calculated polar for: HAM-STD HS1-430 AIRFOIL                         
  
 1 1 Reynolds number fixed          Mach number fixed         
  
 xtrf =   1.000 (top)        1.000 (bottom)  
 Mach =   0.000     Re =     0.200 e 6     Ncrit =   5.000
  
   alpha    CL        CD       CDp       CM     Top_Xtr  Bot_Xtr
  ------ -------- --------- --------- -------- -------- --------
 -18.500  -0.8740   0.09723   0.09060  -0.0968   0.9840   0.1232
 -18.250  -0.9139   0.08884   0.08201  -0.0998   0.9829   0.1252
 -18.000  -0.9478   0.08130   0.07424  -0.1024   0.9816   0.1271
 -17.750  -0.9751   0.07488   0.06755  -0.1044   0.9802   0.1289
 -17.500  -0.9878   0.07048   0.06298  -0.1056   0.9791   0.1303
 -17.250  -0.9795   0.06823   0.06074  -0.1068   0.9780   0.1315
 -17.000  -0.9756   0.06563   0.05809  -0.1078   0.9770   0.1327
 -16.750  -0.9722   0.06296   0.05534  -0.1089   0.9761   0.1341
 -16.500  -0.9726   0.06048   0.05278  -0.1088   0.9744   0.1355
 -16.250  -0.9776   0.05805   0.05024  -0.1074   0.9704   0.1368
 -16.000  -0.9754   0.05550   0.04754  -0.1076   0.9676   0.1385
 -15.750  -0.9674   0.05305   0.04493  -0.1086   0.9652   0.1401
 -15.500  -0.9479   0.05144   0.04333  -0.1102   0.9634   0.1414
 -15.250  -0.9286   0.04977   0.04164  -0.1119   0.9621   0.1429
 -15.000  -0.9285   0.04834   0.04016  -0.1095   0.9567   0.1442
 -14.750  -0.9194   0.04687   0.03861  -0.1089   0.9536   0.1458
 -14.500  -0.9064   0.04532   0.03696  -0.1091   0.9514   0.1475
 -14.250  -0.8918   0.04380   0.03531  -0.1095   0.9498   0.1493
 -14.000  -0.8743   0.04242   0.03383  -0.1101   0.9485   0.1510
 -13.750  -0.8766   0.04169   0.03313  -0.1059   0.9421   0.1521
 -13.500  -0.8611   0.04067   0.03211  -0.1055   0.9395   0.1535
 -13.250  -0.8415   0.03961   0.03102  -0.1058   0.9376   0.1552
 -13.000  -0.8204   0.03854   0.02990  -0.1064   0.9362   0.1570
 -12.750  -0.8248   0.03790   0.02920  -0.1015   0.9286   0.1584
 -12.500  -0.8077   0.03695   0.02815  -0.1010   0.9262   0.1603
 -12.250  -0.7865   0.03598   0.02710  -0.1012   0.9246   0.1621
 -12.000  -0.7808   0.03542   0.02658  -0.0979   0.9183   0.1633
 -11.750  -0.7597   0.03463   0.02582  -0.0977   0.9158   0.1649
 -11.250  -0.7357   0.03339   0.02455  -0.0934   0.9055   0.1678
 -11.000  -0.7361   0.03298   0.02411  -0.0886   0.8965   0.1692
 -10.750  -0.7192   0.03234   0.02343  -0.0873   0.8923   0.1710
 -10.500  -0.7157   0.03192   0.02295  -0.0831   0.8837   0.1726
 -10.250  -0.6959   0.03127   0.02228  -0.0821   0.8803   0.1742
 -10.000  -0.6939   0.03096   0.02198  -0.0776   0.8708   0.1754
  -9.500  -0.6756   0.03017   0.02117  -0.0710   0.8555   0.1782
  -9.250  -0.6568   0.02963   0.02059  -0.0696   0.8503   0.1801
  -9.000  -0.6492   0.02929   0.02020  -0.0658   0.8402   0.1819
  -8.750  -0.6254   0.02871   0.01953  -0.0652   0.8345   0.1841
  -8.500  -0.6033   0.02822   0.01899  -0.0643   0.8275   0.1859
  -8.250  -0.5805   0.02776   0.01854  -0.0636   0.8207   0.1875
  -8.000  -0.5500   0.02721   0.01796  -0.0644   0.8161   0.1896
  -7.750  -0.5189   0.02668   0.01740  -0.0653   0.8110   0.1921
  -7.500  -0.4922   0.02626   0.01691  -0.0653   0.8038   0.1946
  -7.250  -0.4559   0.02572   0.01625  -0.0672   0.7978   0.1974
  -7.000  -0.4102   0.02501   0.01553  -0.0712   0.7925   0.1998
  -6.750  -0.3787   0.02457   0.01509  -0.0722   0.7830   0.2020
  -6.500  -0.3352   0.02404   0.01452  -0.0758   0.7751   0.2046
  -6.250  -0.2933   0.02360   0.01402  -0.0790   0.7680   0.2074
  -6.000  -0.2648   0.02334   0.01370  -0.0794   0.7592   0.2100
  -5.750  -0.2272   0.02303   0.01326  -0.0817   0.7503   0.2126
  -5.500  -0.1973   0.02268   0.01293  -0.0824   0.7420   0.2149
  -5.250  -0.1737   0.02245   0.01271  -0.0818   0.7332   0.2170
  -5.000  -0.1443   0.02223   0.01243  -0.0823   0.7239   0.2195
  -4.750  -0.1230   0.02209   0.01226  -0.0811   0.7128   0.2219
  -4.500  -0.1005   0.02197   0.01207  -0.0801   0.7003   0.2247
  -4.250  -0.0787   0.02188   0.01189  -0.0790   0.6891   0.2272
  -4.000  -0.0607   0.02182   0.01176  -0.0770   0.6774   0.2293
  -3.750  -0.0385   0.02162   0.01154  -0.0760   0.6675   0.2319
  -3.500  -0.0246   0.02150   0.01146  -0.0732   0.6586   0.2341
  -3.250  -0.0092   0.02141   0.01136  -0.0707   0.6474   0.2366
  -3.000   0.0072   0.02136   0.01126  -0.0684   0.6366   0.2392
  -2.750   0.0213   0.02133   0.01121  -0.0656   0.6237   0.2419
  -2.500   0.0370   0.02133   0.01113  -0.0631   0.6109   0.2445
  -2.250   0.0513   0.02137   0.01110  -0.0604   0.5942   0.2468
  -2.000   0.0646   0.02146   0.01109  -0.0574   0.5735   0.2488
  -1.750   0.0733   0.02154   0.01110  -0.0536   0.5457   0.2515
  -1.250   0.0861   0.02204   0.01133  -0.0452   0.4840   0.2567
  -1.000   0.0925   0.02240   0.01154  -0.0411   0.4544   0.2593
  -0.750   0.1001   0.02279   0.01179  -0.0373   0.4260   0.2619
  -0.500   0.1078   0.02323   0.01208  -0.0336   0.3956   0.2644
  -0.250   0.1154   0.02374   0.01242  -0.0300   0.3633   0.2668
   0.000   0.1245   0.02424   0.01276  -0.0267   0.3365   0.2692
   0.250   0.1363   0.02463   0.01307  -0.0240   0.3179   0.2723
   0.500   0.1500   0.02494   0.01334  -0.0217   0.3054   0.2764
   0.750   0.1654   0.02522   0.01361  -0.0197   0.2969   0.2811
   1.000   0.1819   0.02551   0.01389  -0.0179   0.2906   0.2861
   1.250   0.1997   0.02578   0.01416  -0.0164   0.2857   0.2914
   1.750   0.2334   0.02635   0.01477  -0.0132   0.2783   0.3069
   2.000   0.2518   0.02659   0.01507  -0.0119   0.2758   0.3182
   2.250   0.2697   0.02680   0.01538  -0.0105   0.2737   0.3364
   2.500   0.2870   0.02696   0.01570  -0.0091   0.2716   0.3683
   2.750   0.3030   0.02699   0.01604  -0.0075   0.2698   0.4339
   3.000   0.3162   0.02687   0.01646  -0.0053   0.2683   0.5467
   3.250   0.3316   0.02703   0.01697  -0.0034   0.2669   0.6295
   3.500   0.3488   0.02737   0.01748  -0.0019   0.2656   0.6800
   3.750   0.3659   0.02776   0.01804  -0.0003   0.2644   0.7204
   4.000   0.3848   0.02814   0.01863   0.0011   0.2632   0.7622
   4.250   0.4070   0.02870   0.01946   0.0020   0.2621   0.8157
   4.500   0.4377   0.02959   0.02050   0.0012   0.2609   0.8683
   4.750   0.4657   0.03040   0.02134   0.0007   0.2597   0.8976
   5.000   0.4911   0.03114   0.02208   0.0005   0.2586   0.9148
   5.250   0.5135   0.03184   0.02276   0.0008   0.2576   0.9305
   5.500   0.5409   0.03261   0.02350   0.0001   0.2566   0.9409
   5.750   0.5626   0.03327   0.02413   0.0005   0.2557   0.9510
   6.000   0.5925   0.03407   0.02489  -0.0010   0.2548   0.9564
   6.250   0.6204   0.03486   0.02565  -0.0020   0.2540   0.9638
   6.500   0.6490   0.03567   0.02642  -0.0031   0.2532   0.9707
   6.750   0.6836   0.03650   0.02721  -0.0057   0.2525   0.9740
   7.000   0.7153   0.03727   0.02793  -0.0076   0.2517   0.9776
   7.250   0.7467   0.03802   0.02864  -0.0094   0.2510   0.9820
   7.500   0.7769   0.03880   0.02942  -0.0109   0.2503   0.9868
   7.750   0.8082   0.03955   0.03017  -0.0129   0.2494   0.9894
   8.000   0.8388   0.04026   0.03087  -0.0147   0.2485   0.9916
   8.250   0.8716   0.04105   0.03166  -0.0170   0.2475   0.9944
   8.500   0.9061   0.04192   0.03253  -0.0197   0.2465   0.9977
   8.750   0.9364   0.04276   0.03335  -0.0215   0.2454   1.0000
   9.000   0.9482   0.04318   0.03377  -0.0195   0.2447   1.0000
   9.250   0.9601   0.04362   0.03419  -0.0177   0.2440   1.0000
   9.500   0.9725   0.04407   0.03463  -0.0159   0.2433   1.0000
   9.750   0.9852   0.04453   0.03507  -0.0141   0.2426   1.0000
  10.000   0.9984   0.04498   0.03550  -0.0125   0.2419   1.0000
  10.250   1.0127   0.04542   0.03590  -0.0111   0.2411   1.0000
  10.500   1.0281   0.04581   0.03624  -0.0098   0.2402   1.0000
  10.750   1.0388   0.04646   0.03693  -0.0080   0.2392   1.0000
  11.000   1.0501   0.04710   0.03762  -0.0063   0.2383   1.0000
  11.250   1.0619   0.04775   0.03829  -0.0047   0.2372   1.0000
  11.500   1.0741   0.04841   0.03897  -0.0033   0.2362   1.0000
  11.750   1.0863   0.04909   0.03968  -0.0018   0.2351   1.0000
  12.000   1.0984   0.04982   0.04041  -0.0005   0.2340   1.0000
  12.250   1.1106   0.05056   0.04116   0.0008   0.2327   1.0000
  12.500   1.1240   0.05126   0.04183   0.0020   0.2316   1.0000
  12.750   1.1394   0.05185   0.04238   0.0029   0.2305   1.0000
  13.000   1.1515   0.05269   0.04326   0.0040   0.2294   1.0000
  13.250   1.1612   0.05374   0.04438   0.0053   0.2282   1.0000
  13.500   1.1719   0.05479   0.04548   0.0064   0.2270   1.0000
  13.750   1.1836   0.05580   0.04653   0.0074   0.2257   1.0000
  14.000   1.1959   0.05681   0.04757   0.0082   0.2244   1.0000
  14.250   1.2091   0.05780   0.04855   0.0089   0.2231   1.0000
  14.500   1.2242   0.05866   0.04939   0.0093   0.2219   1.0000
  14.750   1.2379   0.05967   0.05040   0.0099   0.2206   1.0000
  15.000   1.2448   0.06127   0.05209   0.0108   0.2191   1.0000
  15.250   1.2544   0.06268   0.05357   0.0114   0.2176   1.0000
  15.500   1.2655   0.06400   0.05492   0.0119   0.2162   1.0000
  15.750   1.2794   0.06508   0.05600   0.0122   0.2149   1.0000
  16.000   1.2968   0.06587   0.05674   0.0123   0.2137   1.0000
  16.250   1.3096   0.06709   0.05799   0.0125   0.2124   1.0000
  16.500   1.3103   0.06943   0.06047   0.0134   0.2106   1.0000
  16.750   1.3165   0.07130   0.06240   0.0138   0.2088   1.0000
  17.000   1.3289   0.07259   0.06370   0.0140   0.2074   1.0000
  17.250   1.3471   0.07333   0.06440   0.0138   0.2062   1.0000
  17.500   1.3525   0.07532   0.06647   0.0142   0.2046   1.0000
  17.750   1.3420   0.07894   0.07029   0.0150   0.2024   1.0000
  18.000   1.3448   0.08127   0.07270   0.0152   0.2006   1.0000
  18.250   1.3556   0.08278   0.07422   0.0151   0.1992   1.0000
  18.500   1.3447   0.08666   0.07829   0.0154   0.1971   1.0000
  18.750   1.3212   0.09212   0.08402   0.0156   0.1942   1.0000
