  
       XFOIL         Version 6.96
  
 Calculated polar for: UNIVERSITY OF ALBERTA UA 79-SF-187 AIRFOIL MAIN 
  
 1 1 Reynolds number fixed          Mach number fixed         
  
 xtrf =   1.000 (top)        1.000 (bottom)  
 Mach =   0.000     Re =     0.050 e 6     Ncrit =   5.000
  
   alpha    CL        CD       CDp       CM     Top_Xtr  Bot_Xtr
  ------ -------- --------- --------- -------- -------- --------
 -19.750  -0.0480   0.07829   0.07379   0.0357   1.0000   0.1577
 -19.500  -0.0447   0.07816   0.07373   0.0334   1.0000   0.1601
 -19.250  -0.0419   0.07836   0.07399   0.0314   1.0000   0.1617
 -19.000  -0.0396   0.07878   0.07448   0.0297   1.0000   0.1625
 -18.750  -0.0346   0.07729   0.07308   0.0267   1.0000   0.1641
 -18.500  -0.0306   0.07639   0.07225   0.0242   1.0000   0.1663
 -18.250  -0.0283   0.07614   0.07209   0.0227   1.0000   0.1685
 -18.000  -0.0286   0.07651   0.07255   0.0226   1.0000   0.1704
 -17.750  -0.0225   0.07582   0.07188   0.0186   0.9647   0.1732
 -17.500  -0.0153   0.07592   0.07196   0.0140   0.9438   0.1755
 -17.250  -0.0094   0.07625   0.07227   0.0100   0.9284   0.1768
 -17.000   0.0010   0.07428   0.07030   0.0040   0.9150   0.1792
 -16.750   0.0105   0.07296   0.06895  -0.0016   0.9039   0.1832
 -16.500   0.0175   0.07235   0.06831  -0.0059   0.8939   0.1871
 -16.250   0.0230   0.07226   0.06820  -0.0094   0.8851   0.1905
 -15.750   0.0346   0.07104   0.06694  -0.0166   0.8696   0.1943
 -15.500   0.0417   0.06981   0.06570  -0.0207   0.8623   0.1979
 -15.250   0.0478   0.06914   0.06501  -0.0244   0.8564   0.2018
 -15.000   0.0514   0.06896   0.06481  -0.0267   0.8508   0.2052
 -14.750   0.0533   0.06921   0.06507  -0.0280   0.8452   0.2075
 -14.500   0.0546   0.06972   0.06558  -0.0292   0.8400   0.2087
 -14.250   0.0631   0.06761   0.06347  -0.0338   0.8345   0.2122
 -14.000   0.0688   0.06679   0.06263  -0.0371   0.8299   0.2168
 -13.750   0.0702   0.06678   0.06263  -0.0381   0.8246   0.2211
 -13.500   0.0704   0.06724   0.06310  -0.0386   0.8200   0.2243
 -13.250   0.0712   0.06753   0.06342  -0.0393   0.8159   0.2259
 -13.000   0.0782   0.06585   0.06174  -0.0431   0.8116   0.2300
 -12.750   0.0825   0.06528   0.06116  -0.0456   0.8081   0.2349
 -12.500   0.0837   0.06536   0.06125  -0.0465   0.8046   0.2394
 -12.250   0.0814   0.06605   0.06197  -0.0455   0.8005   0.2419
 -12.000   0.0786   0.06689   0.06284  -0.0442   0.7965   0.2431
 -11.750   0.0838   0.06533   0.06130  -0.0470   0.7922   0.2466
 -11.500   0.0869   0.06480   0.06077  -0.0487   0.7884   0.2515
 -11.250   0.0881   0.06481   0.06079  -0.0495   0.7853   0.2570
 -11.000   0.0869   0.06547   0.06146  -0.0492   0.7828   0.2608
 -10.750   0.0819   0.06624   0.06228  -0.0466   0.7793   0.2621
 -10.500   0.0821   0.06548   0.06156  -0.0465   0.7750   0.2657
 -10.250   0.0808   0.06543   0.06153  -0.0459   0.7710   0.2705
 -10.000   0.0787   0.06573   0.06185  -0.0448   0.7674   0.2758
  -9.750   0.0746   0.06654   0.06268  -0.0428   0.7646   0.2799
  -9.500   0.0732   0.06673   0.06290  -0.0422   0.7618   0.2822
  -9.250   0.0800   0.06540   0.06157  -0.0458   0.7589   0.2888
  -9.000   0.0729   0.06607   0.06227  -0.0419   0.7555   0.2924
  -8.750   0.0648   0.06687   0.06313  -0.0376   0.7520   0.2958
  -8.500   0.0565   0.06779   0.06408  -0.0332   0.7491   0.2986
  -8.250   0.0482   0.06876   0.06508  -0.0288   0.7465   0.3002
  -8.000   0.0477   0.06822   0.06458  -0.0285   0.7435   0.3032
  -7.750   0.0483   0.06782   0.06419  -0.0288   0.7406   0.3090
  -7.500   0.0456   0.06811   0.06451  -0.0275   0.7384   0.3154
  -7.250   0.0396   0.06895   0.06537  -0.0245   0.7367   0.3187
  -7.000   0.0459   0.06776   0.06418  -0.0277   0.7346   0.3260
  -6.750   0.0375   0.06830   0.06477  -0.0232   0.7327   0.3303
  -6.500   0.0287   0.06906   0.06556  -0.0186   0.7309   0.3343
  -6.250   0.0223   0.06939   0.06594  -0.0152   0.7289   0.3368
  -6.000   0.0214   0.06891   0.06548  -0.0147   0.7267   0.3435
  -5.750   0.0153   0.06939   0.06599  -0.0115   0.7258   0.3499
  -5.500   0.0116   0.06938   0.06602  -0.0096   0.7251   0.3540
  -5.250   0.0100   0.06917   0.06582  -0.0087   0.7239   0.3615
  -5.000   0.0024   0.06984   0.06653  -0.0048   0.7231   0.3667
  -4.750   0.0042   0.06907   0.06578  -0.0057   0.7211   0.3740
  -4.500  -0.0023   0.06958   0.06632  -0.0024   0.7201   0.3811
  -4.250  -0.0009   0.06892   0.06568  -0.0031   0.7186   0.3885
  -4.000  -0.0082   0.06945   0.06624   0.0007   0.7190   0.3957
  -3.750  -0.0071   0.06881   0.06563   0.0001   0.7186   0.4036
  -3.500  -0.0137   0.06920   0.06605   0.0035   0.7187   0.4114
  -3.250  -0.0136   0.06883   0.06570   0.0035   0.7176   0.4233
  -3.000  -0.0136   0.06843   0.06532   0.0035   0.7164   0.4336
  -2.750  -0.0173   0.06845   0.06538   0.0055   0.7159   0.4446
  -2.500  -0.0230   0.06872   0.06568   0.0084   0.7165   0.4574
  -2.250  -0.0212   0.06807   0.06505   0.0076   0.7162   0.4711
  -2.000  -0.0232   0.06783   0.06484   0.0087   0.7161   0.4830
  -1.750  -0.0327   0.06850   0.06555   0.0136   0.7171   0.4967
  -1.500  -0.0295   0.06781   0.06487   0.0121   0.7156   0.5166
  -1.250  -0.0258   0.06704   0.06412   0.0102   0.7144   0.5323
  -0.500  -0.0352   0.06687   0.06405   0.0154   0.7157   0.5950
   0.000  -0.0200   0.06547   0.06266   0.0077   0.7102   0.6581
   0.250  -0.0181   0.06502   0.06224   0.0068   0.7096   0.6910
   0.500  -0.0149   0.06450   0.06174   0.0053   0.7081   0.7352
   0.750  -0.0095   0.06393   0.06120   0.0025   0.7069   0.7798
   1.000  -0.0053   0.06372   0.06100   0.0002   0.7096   0.8024
   1.500  -0.1210   0.06236   0.05968   0.0559   0.8544   0.2723
   1.750  -0.1237   0.06078   0.05808   0.0568   0.8500   0.2521
   2.000  -0.1223   0.05948   0.05674   0.0555   0.8401   0.2374
   2.250  -0.1161   0.05847   0.05565   0.0513   0.8323   0.2248
   2.500  -0.1133   0.05787   0.05505   0.0498   0.8287   0.2219
   2.750  -0.1123   0.05671   0.05388   0.0491   0.8204   0.2187
   3.000  -0.1047   0.05597   0.05309   0.0447   0.8102   0.2136
   3.250  -0.0949   0.05512   0.05212   0.0386   0.8046   0.2086
   3.500  -0.0919   0.05406   0.05104   0.0370   0.7950   0.2081
   3.750  -0.0830   0.05371   0.05064   0.0320   0.7863   0.2078
   4.000  -0.0737   0.05366   0.05053   0.0268   0.7815   0.2074
   4.250  -0.0707   0.05260   0.04943   0.0251   0.7739   0.2068
   4.500  -0.0601   0.05237   0.04913   0.0193   0.7630   0.2068
   4.750  -0.0488   0.05249   0.04914   0.0130   0.7572   0.2078
   5.000  -0.0436   0.05160   0.04818   0.0101   0.7484   0.2085
   5.250  -0.0337   0.05170   0.04823   0.0047   0.7394   0.2099
   5.500  -0.0225   0.05231   0.04874  -0.0013   0.7338   0.2113
   5.750  -0.0192   0.05146   0.04785  -0.0031   0.7248   0.2126
   6.000  -0.0075   0.05197   0.04827  -0.0094   0.7139   0.2156
   6.250   0.0028   0.05254   0.04871  -0.0149   0.7091   0.2182
   6.500   0.0074   0.05192   0.04801  -0.0174   0.7001   0.2198
   6.750   0.0208   0.05272   0.04863  -0.0245   0.6893   0.2231
   7.000   0.0299   0.05326   0.04903  -0.0294   0.6841   0.2263
   7.250   0.0338   0.05285   0.04858  -0.0314   0.6735   0.2289
   7.500   0.0457   0.05399   0.04960  -0.0377   0.6643   0.2332
   7.750   0.0524   0.05437   0.04987  -0.0413   0.6596   0.2368
   8.000   0.0577   0.05416   0.04955  -0.0440   0.6485   0.2405
   8.250   0.0705   0.05571   0.05097  -0.0506   0.6396   0.2463
   8.500   0.0746   0.05583   0.05104  -0.0528   0.6360   0.2500
   8.750   0.0787   0.05563   0.05077  -0.0550   0.6259   0.2544
   9.000   0.0908   0.05713   0.05213  -0.0612   0.6171   0.2621
   9.250   0.0955   0.05757   0.05254  -0.0637   0.6138   0.2676
   9.500   0.0982   0.05730   0.05224  -0.0651   0.6071   0.2727
   9.750   0.1065   0.05814   0.05297  -0.0694   0.5981   0.2811
  10.000   0.1156   0.05963   0.05445  -0.0741   0.5931   0.2915
  10.250   0.1174   0.05930   0.05410  -0.0751   0.5892   0.2986
  10.500   0.1219   0.05954   0.05435  -0.0774   0.5824   0.3083
  10.750   0.1302   0.06065   0.05546  -0.0817   0.5758   0.3250
  11.000   0.1380   0.06190   0.05673  -0.0858   0.5721   0.3467
  11.250   0.1400   0.06163   0.05649  -0.0869   0.5682   0.3665
  11.500   0.1446   0.06192   0.05698  -0.0894   0.5614   0.4030
  11.750   0.1500   0.06257   0.05806  -0.0920   0.5565   0.5784
  12.000   0.1574   0.06305   0.05834  -0.0956   0.5529   1.0000
  12.250   0.1598   0.06297   0.05812  -0.0970   0.5510   1.0000
  12.500   0.1626   0.06291   0.05793  -0.0985   0.5458   1.0000
  12.750   0.1685   0.06365   0.05853  -0.1016   0.5393   1.0000
  13.000   0.1765   0.06523   0.05997  -0.1057   0.5350   1.0000
  13.250   0.1812   0.06602   0.06065  -0.1082   0.5335   1.0000
  13.500   0.1835   0.06599   0.06055  -0.1096   0.5315   1.0000
  13.750   0.1866   0.06605   0.06054  -0.1113   0.5263   1.0000
  14.000   0.1923   0.06688   0.06128  -0.1143   0.5204   1.0000
  14.250   0.2004   0.06869   0.06299  -0.1184   0.5164   1.0000
  14.500   0.2036   0.06904   0.06328  -0.1202   0.5154   1.0000
  14.750   0.2059   0.06902   0.06322  -0.1216   0.5134   1.0000
  15.000   0.2091   0.06913   0.06328  -0.1234   0.5088   1.0000
  15.250   0.2143   0.06988   0.06396  -0.1262   0.5035   1.0000
  15.500   0.2218   0.07161   0.06562  -0.1301   0.4993   1.0000
  15.750   0.2250   0.07197   0.06593  -0.1319   0.4981   1.0000
  16.000   0.2275   0.07199   0.06591  -0.1334   0.4962   1.0000
  16.250   0.2306   0.07210   0.06599  -0.1352   0.4921   1.0000
  16.500   0.2355   0.07280   0.06664  -0.1378   0.4870   1.0000
  16.750   0.2428   0.07458   0.06837  -0.1416   0.4827   1.0000
  17.000   0.2455   0.07474   0.06849  -0.1432   0.4813   1.0000
  17.250   0.2480   0.07474   0.06846  -0.1447   0.4792   1.0000
  17.500   0.2513   0.07492   0.06861  -0.1466   0.4750   1.0000
  17.750   0.2563   0.07574   0.06940  -0.1493   0.4700   1.0000
  18.000   0.2630   0.07746   0.07108  -0.1528   0.4664   1.0000
  18.250   0.2650   0.07726   0.07086  -0.1541   0.4648   1.0000
  18.500   0.2675   0.07727   0.07085  -0.1557   0.4620   1.0000
  18.750   0.2712   0.07764   0.07120  -0.1578   0.4577   1.0000
  19.000   0.2768   0.07877   0.07229  -0.1607   0.4531   1.0000
  19.250   0.2815   0.07981   0.07330  -0.1633   0.4506   1.0000
