  
       XFOIL         Version 6.96
  
 Calculated polar for: Marsden                                         
  
 1 1 Reynolds number fixed          Mach number fixed         
  
 xtrf =   1.000 (top)        1.000 (bottom)  
 Mach =   0.000     Re =     0.050 e 6     Ncrit =   5.000
  
   alpha    CL        CD       CDp       CM     Top_Xtr  Bot_Xtr
  ------ -------- --------- --------- -------- -------- --------
 -18.500   0.1977   0.18382   0.17285  -0.1097   0.5460   0.1171
 -18.250   0.2073   0.18220   0.17125  -0.1116   0.5452   0.1194
 -18.000   0.2107   0.18177   0.17085  -0.1139   0.5446   0.1211
 -17.750   0.2138   0.18120   0.17033  -0.1159   0.5440   0.1218
 -17.500   0.2361   0.17640   0.16554  -0.1166   0.5428   0.1231
 -17.250   0.2516   0.17365   0.16280  -0.1176   0.5418   0.1248
 -17.000   0.2643   0.17149   0.16065  -0.1188   0.5408   0.1267
 -16.750   0.2754   0.16955   0.15872  -0.1202   0.5399   0.1287
 -16.500   0.2843   0.16789   0.15707  -0.1216   0.5391   0.1310
 -16.250   0.2886   0.16694   0.15614  -0.1234   0.5383   0.1330
 -16.000   0.2892   0.16658   0.15580  -0.1252   0.5377   0.1338
 -15.750   0.2946   0.16509   0.15435  -0.1266   0.5370   0.1343
 -15.500   0.3169   0.16077   0.15001  -0.1272   0.5361   0.1355
 -15.250   0.3329   0.15810   0.14736  -0.1279   0.5354   0.1371
 -15.000   0.3456   0.15605   0.14531  -0.1288   0.5348   0.1390
 -14.750   0.3559   0.15432   0.14360  -0.1297   0.5343   0.1415
 -14.500   0.3618   0.15313   0.14244  -0.1308   0.5338   0.1450
 -14.250   0.3544   0.15364   0.14300  -0.1324   0.5336   0.1475
 -14.000   0.3589   0.15201   0.14142  -0.1334   0.5332   0.1484
 -13.750   0.3830   0.14808   0.13756  -0.1333   0.5326   0.1503
 -13.500   0.3966   0.14601   0.13556  -0.1335   0.5322   0.1527
 -13.250   0.4061   0.14440   0.13402  -0.1339   0.5318   0.1552
 -13.000   0.4127   0.14301   0.13270  -0.1344   0.5314   0.1577
 -12.750   0.4136   0.14217   0.13195  -0.1351   0.5311   0.1608
 -12.500   0.4067   0.14208   0.13195  -0.1360   0.5308   0.1625
 -12.250   0.4015   0.14162   0.13157  -0.1366   0.5304   0.1630
 -12.000   0.3991   0.14064   0.13070  -0.1371   0.5299   0.1633
 -11.750   0.4112   0.13807   0.12822  -0.1369   0.5291   0.1637
 -11.500   0.4226   0.13582   0.12606  -0.1366   0.5282   0.1642
 -11.000   0.4231   0.12830   0.11857  -0.1385   0.5270   0.1208
 -10.750   0.4325   0.12693   0.11729  -0.1377   0.5262   0.1189
 -10.250   0.4126   0.12259   0.11312  -0.1383   0.5255   0.1101
 -10.000   0.4150   0.12177   0.11241  -0.1370   0.5249   0.1094
  -9.750   0.4143   0.12104   0.11179  -0.1356   0.5245   0.1085
  -9.500   0.4101   0.12039   0.11126  -0.1340   0.5240   0.1073
  -9.250   0.4013   0.11978   0.11078  -0.1322   0.5234   0.1059
  -9.000   0.3868   0.11921   0.11034  -0.1301   0.5227   0.1044
  -8.500   0.3162   0.11679   0.10822  -0.1248   0.5212   0.1000
  -8.250   0.2868   0.11853   0.11016  -0.1192   0.5200   0.0997
  -8.000   0.2417   0.12208   0.11396  -0.1112   0.5190   0.0994
  -7.750   0.1438   0.13199   0.12432  -0.0943   0.5179   0.0995
  -7.500   0.0785   0.13841   0.13099  -0.0850   0.5160   0.0994
  -7.250   0.0442   0.14064   0.13335  -0.0809   0.5146   0.0990
  -7.000   0.0145   0.14198   0.13478  -0.0777   0.5137   0.0986
  -6.750  -0.0162   0.14302   0.13592  -0.0748   0.5134   0.0981
  -6.500  -0.0456   0.14324   0.13622  -0.0725   0.5133   0.0975
  -6.250  -0.0737   0.14207   0.13510  -0.0709   0.5129   0.0968
  -5.750  -0.2969   0.12210   0.11480  -0.0746   0.5145   0.0911
  -5.500  -0.3200   0.11875   0.11131  -0.0760   0.5139   0.0908
  -5.250  -0.3357   0.11542   0.10780  -0.0778   0.5134   0.0906
  -5.000  -0.3459   0.11262   0.10476  -0.0799   0.5135   0.0905
  -4.750  -0.3505   0.11046   0.10238  -0.0821   0.5141   0.0904
  -4.500  -0.3498   0.10857   0.10021  -0.0846   0.5149   0.0904
  -4.250  -0.3428   0.10702   0.09837  -0.0873   0.5157   0.0906
  -4.000  -0.3286   0.10556   0.09655  -0.0903   0.5156   0.0909
  -3.750  -0.3106   0.10457   0.09529  -0.0929   0.5149   0.0912
  -3.500  -0.2949   0.10451   0.09518  -0.0938   0.5140   0.0920
  -3.250  -0.2819   0.10477   0.09539  -0.0946   0.5140   0.0928
  -3.000  -0.2784   0.10556   0.09615  -0.0952   0.5172   0.0936
  -2.750  -0.2928   0.10831   0.09899  -0.0962   0.5468   0.0938
  -2.500  -0.2197   0.11176   0.10208  -0.1029   0.5598   0.0969
  -2.250  -0.1990   0.11234   0.10241  -0.1047   0.5598   0.0983
  -1.750  -0.1661   0.11350   0.10314  -0.1069   0.5597   0.1002
  -1.500  -0.1538   0.11421   0.10385  -0.1070   0.5595   0.1010
  -1.250  -0.1478   0.11457   0.10422  -0.1067   0.5591   0.1017
  -1.000  -0.1713   0.11214   0.10184  -0.1040   0.5499   0.1018
  -0.750  -0.1540   0.11263   0.10230  -0.1040   0.5450   0.1030
  -0.500  -0.1323   0.11347   0.10309  -0.1042   0.5414   0.1045
  -0.250  -0.1089   0.11459   0.10413  -0.1043   0.5388   0.1062
   0.000  -0.0848   0.11602   0.10545  -0.1043   0.5370   0.1087
   0.250  -0.0583   0.11793   0.10732  -0.1043   0.5355   0.1117
   0.500  -0.0249   0.12088   0.11030  -0.1048   0.5340   0.1158
   0.750  -0.0011   0.12349   0.11282  -0.1049   0.5332   0.1198
   1.000  -0.0074   0.12327   0.11260  -0.1036   0.5325   0.1212
   1.250  -0.0323   0.12078   0.11018  -0.1014   0.5258   0.1213
   1.500  -0.0207   0.12143   0.11093  -0.1009   0.5210   0.1240
   1.750  -0.0036   0.12255   0.11209  -0.1009   0.5177   0.1278
   2.000   0.0184   0.12397   0.11346  -0.1012   0.5144   0.1333
   2.250   0.0474   0.12589   0.11550  -0.1025   0.5116   0.1418
   2.500   0.0868   0.12888   0.11859  -0.1049   0.5092   0.1564
   2.750   0.1437   0.13392   0.12396  -0.1102   0.5076   0.1931
   3.000   0.1510   0.13461   0.12499  -0.1124   0.5069   0.2270
   3.250   0.1623   0.13516   0.12621  -0.1164   0.5056   0.3076
   3.500   0.1553   0.13409   0.12601  -0.1156   0.4976   0.4057
   3.750   0.1340   0.13360   0.12618  -0.1048   0.4935   0.5042
   4.000   0.1577   0.13589   0.12832  -0.1049   0.4892   0.6152
   4.250   0.1839   0.13873   0.13095  -0.1045   0.4863   0.6616
   4.500   0.1988   0.14156   0.13365  -0.1002   0.4844   0.6978
   4.750   0.2051   0.14450   0.13652  -0.0934   0.4834   0.7343
   5.000   0.1951   0.14479   0.13684  -0.0894   0.4830   0.7538
   5.250   0.1828   0.14443   0.13652  -0.0864   0.4820   0.7701
   5.500   0.1634   0.14248   0.13465  -0.0827   0.4743   0.7813
   5.750   0.1623   0.14271   0.13484  -0.0777   0.4695   0.8067
   6.000   0.1640   0.14304   0.13509  -0.0729   0.4665   0.8266
   6.250   0.1806   0.14463   0.13656  -0.0716   0.4642   0.8408
   6.500   0.2040   0.14702   0.13878  -0.0710   0.4622   0.8484
   7.000   0.2320   0.15090   0.14252  -0.0742   0.4601   0.8545
   7.250   0.2312   0.15042   0.14204  -0.0754   0.4519   0.8561
   7.500   0.2492   0.15180   0.14334  -0.0762   0.4476   0.8586
   7.750   0.2727   0.15368   0.14511  -0.0773   0.4444   0.8617
   8.500   0.3280   0.16029   0.15151  -0.0825   0.4393   0.8676
   8.750   0.3384   0.16047   0.15166  -0.0841   0.4292   0.8692
   9.000   0.3707   0.16286   0.15394  -0.0862   0.4248   0.8716
   9.250   0.3931   0.16536   0.15635  -0.0873   0.4229   0.8740
   9.500   0.3993   0.16680   0.15780  -0.0887   0.4219   0.8759
   9.750   0.4152   0.16547   0.15639  -0.0895   0.4009   0.8777
  10.000   0.4368   0.16709   0.15795  -0.0913   0.3966   0.8792
  10.250   0.4592   0.16870   0.15949  -0.0930   0.3918   0.8808
  10.500   0.4707   0.17053   0.16133  -0.0950   0.3883   0.8822
  10.750   0.4889   0.17233   0.16311  -0.0969   0.3847   0.8840
  11.000   0.5155   0.17412   0.16482  -0.0988   0.3811   0.8863
  11.250   0.5239   0.17537   0.16609  -0.1001   0.3753   0.8883
  11.500   0.5390   0.17702   0.16773  -0.1015   0.3720   0.8906
  11.750   0.5580   0.17879   0.16947  -0.1031   0.3695   0.8928
  12.000   0.5774   0.18046   0.17111  -0.1048   0.3658   0.8946
  12.250   0.5887   0.18220   0.17287  -0.1068   0.3610   0.8962
  12.500   0.6085   0.18392   0.17457  -0.1087   0.3574   0.8980
  12.750   0.6330   0.18569   0.17631  -0.1106   0.3548   0.8999
  13.000   0.6405   0.18758   0.17824  -0.1125   0.3508   0.9015
  13.250   0.6536   0.18923   0.17990  -0.1141   0.3469   0.9038
