  
       XFOIL         Version 6.96
  
 Calculated polar for: SIKORSKY DBLN-526 AIRFOIL                       
  
 1 1 Reynolds number fixed          Mach number fixed         
  
 xtrf =   1.000 (top)        1.000 (bottom)  
 Mach =   0.000     Re =     0.050 e 6     Ncrit =   5.000
  
   alpha    CL        CD       CDp       CM     Top_Xtr  Bot_Xtr
  ------ -------- --------- --------- -------- -------- --------
 -13.500  -0.7480   0.12693   0.11894  -0.0695   0.9971   0.0841
 -13.250  -0.7923   0.11799   0.10978  -0.0709   0.9949   0.0836
 -12.750  -0.8746   0.10556   0.09683  -0.0658   0.9895   0.0832
 -12.500  -0.9228   0.10034   0.09126  -0.0590   0.9858   0.0836
 -12.250  -0.9519   0.09689   0.08755  -0.0531   0.9827   0.0835
 -12.000  -0.9841   0.09371   0.08409  -0.0455   0.9788   0.0837
 -11.750  -1.0095   0.09002   0.07998  -0.0390   0.9758   0.0843
 -11.500  -1.0231   0.08698   0.07663  -0.0338   0.9723   0.0853
 -11.250  -1.0170   0.08506   0.07460  -0.0317   0.9692   0.0863
 -11.000  -1.0127   0.08273   0.07203  -0.0292   0.9659   0.0871
 -10.750  -1.0074   0.08087   0.07002  -0.0266   0.9621   0.0885
 -10.500  -0.9996   0.07866   0.06751  -0.0244   0.9594   0.0900
 -10.250  -0.9938   0.07649   0.06503  -0.0216   0.9560   0.0906
 -10.000  -0.9861   0.07445   0.06266  -0.0190   0.9531   0.0920
  -9.750  -0.9739   0.07253   0.06030  -0.0171   0.9506   0.0943
  -9.500  -0.9537   0.07097   0.05850  -0.0167   0.9487   0.0960
  -9.250  -0.9425   0.07008   0.05764  -0.0146   0.9453   0.0982
  -9.000  -0.9234   0.06896   0.05635  -0.0139   0.9424   0.0998
  -8.750  -0.8996   0.06785   0.05503  -0.0140   0.9400   0.1023
  -8.500  -0.8751   0.06684   0.05372  -0.0141   0.9373   0.1049
  -8.250  -0.8581   0.06596   0.05277  -0.0128   0.9338   0.1079
  -8.000  -0.8358   0.06533   0.05214  -0.0127   0.9312   0.1109
  -7.750  -0.8104   0.06480   0.05150  -0.0130   0.9292   0.1143
  -7.500  -0.7791   0.06433   0.05077  -0.0143   0.9274   0.1186
  -7.250  -0.7582   0.06395   0.05050  -0.0139   0.9253   0.1230
  -7.000  -0.7383   0.06358   0.05008  -0.0131   0.9227   0.1266
  -6.750  -0.7143   0.06330   0.04968  -0.0130   0.9201   0.1335
  -6.500  -0.6885   0.06300   0.04945  -0.0135   0.9177   0.1402
  -6.250  -0.6594   0.06285   0.04920  -0.0145   0.9155   0.1490
  -6.000  -0.6306   0.06261   0.04901  -0.0155   0.9138   0.1611
  -5.750  -0.6199   0.06218   0.04868  -0.0130   0.9103   0.1714
  -5.500  -0.6033   0.06192   0.04846  -0.0116   0.9078   0.1833
  -5.250  -0.5859   0.06173   0.04834  -0.0106   0.9056   0.2020
  -5.000  -0.5645   0.06157   0.04809  -0.0101   0.9035   0.2297
  -4.750  -0.5419   0.06106   0.04762  -0.0100   0.9016   0.2615
  -4.500  -0.5288   0.06019   0.04716  -0.0082   0.8989   0.2922
  -4.250  -0.5283   0.05875   0.04688  -0.0037   0.8955   0.4388
  -4.000  -0.4710   0.06067   0.05041  -0.0080   0.8943   0.7074
  -3.750  -0.4450   0.06173   0.05144  -0.0073   0.8919   0.7796
  -3.500  -0.3626   0.06625   0.05586  -0.0164   0.8903   0.8352
  -3.250  -0.3187   0.06793   0.05730  -0.0197   0.8878   0.8573
  -3.000  -0.2843   0.06922   0.05840  -0.0215   0.8837   0.8735
  -2.750  -0.2498   0.07029   0.05928  -0.0235   0.8782   0.8885
  -2.500  -0.2036   0.07159   0.06036  -0.0277   0.8742   0.9086
  -2.250  -0.1686   0.07254   0.06112  -0.0299   0.8692   0.9246
  -2.000  -0.1309   0.07337   0.06181  -0.0331   0.8629   0.9349
  -1.750  -0.0849   0.07417   0.06244  -0.0379   0.8592   0.9455
  -1.500  -0.0396   0.07480   0.06289  -0.0429   0.8567   0.9544
  -1.250  -0.0213   0.07560   0.06361  -0.0426   0.8500   0.9626
  -1.000   0.0098   0.07611   0.06401  -0.0448   0.8456   0.9701
  -0.750   0.0517   0.07649   0.06426  -0.0493   0.8422   0.9773
  -0.500   0.0990   0.07687   0.06451  -0.0548   0.8398   0.9837
  -0.250   0.1177   0.07781   0.06542  -0.0549   0.8320   0.9898
   0.000   0.1624   0.07846   0.06599  -0.0603   0.8280   0.9953
   0.250   0.2170   0.07862   0.06609  -0.0675   0.8244   0.9986
   0.500   0.2487   0.07876   0.06618  -0.0700   0.8188   1.0000
   0.750   0.2540   0.07883   0.06622  -0.0671   0.8104   1.0000
   1.000   0.2757   0.07849   0.06581  -0.0672   0.8060   1.0000
   1.250   0.3031   0.07798   0.06522  -0.0683   0.8028   1.0000
   1.500   0.2931   0.07866   0.06592  -0.0626   0.7915   1.0000
   1.750   0.3135   0.07841   0.06561  -0.0624   0.7867   1.0000
   2.000   0.3384   0.07806   0.06521  -0.0629   0.7836   1.0000
   2.250   0.3296   0.07887   0.06602  -0.0576   0.7721   1.0000
   2.500   0.3494   0.07870   0.06581  -0.0572   0.7672   1.0000
   2.750   0.3753   0.07835   0.06541  -0.0578   0.7639   1.0000
   3.250   0.3869   0.07927   0.06630  -0.0522   0.7473   1.0000
   3.500   0.4118   0.07912   0.06611  -0.0526   0.7443   1.0000
   3.750   0.3998   0.08066   0.06768  -0.0471   0.7331   1.0000
   4.000   0.4181   0.08086   0.06786  -0.0465   0.7282   1.0000
   4.250   0.4428   0.08081   0.06778  -0.0468   0.7250   1.0000
   4.500   0.4348   0.08233   0.06933  -0.0421   0.7144   1.0000
   4.750   0.4494   0.08285   0.06984  -0.0410   0.7091   1.0000
   5.000   0.4706   0.08313   0.07012  -0.0408   0.7057   1.0000
   5.250   0.4961   0.08322   0.07020  -0.0413   0.7031   1.0000
   5.500   0.4777   0.08556   0.07260  -0.0354   0.6913   1.0000
   5.750   0.4958   0.08606   0.07311  -0.0348   0.6867   1.0000
   6.000   0.5195   0.08627   0.07333  -0.0350   0.6836   1.0000
   6.500   0.5238   0.08908   0.07621  -0.0295   0.6683   1.0000
   6.750   0.5453   0.08938   0.07655  -0.0294   0.6643   1.0000
   7.000   0.5769   0.08895   0.07615  -0.0305   0.6610   1.0000
   7.250   0.5625   0.09115   0.07842  -0.0255   0.6482   1.0000
   7.500   0.5883   0.09103   0.07834  -0.0258   0.6434   1.0000
   8.000   0.6047   0.09298   0.08039  -0.0220   0.6270   1.0000
   8.250   0.6333   0.09257   0.08005  -0.0225   0.6225   1.0000
   8.500   0.6329   0.09384   0.08139  -0.0195   0.6100   1.0000
   8.750   0.6625   0.09302   0.08064  -0.0198   0.6037   1.0000
   9.000   0.6653   0.09414   0.08181  -0.0172   0.5919   1.0000
   9.250   0.6932   0.09330   0.08104  -0.0172   0.5848   1.0000
   9.500   0.6990   0.09432   0.08214  -0.0151   0.5737   1.0000
   9.750   0.7230   0.09379   0.08169  -0.0146   0.5657   1.0000
  10.000   0.7556   0.09263   0.08062  -0.0153   0.5617   1.0000
  10.250   0.7480   0.09490   0.08299  -0.0119   0.5468   1.0000
  10.500   0.7800   0.09367   0.08187  -0.0123   0.5420   1.0000
  10.750   0.7757   0.09570   0.08399  -0.0093   0.5271   1.0000
  11.000   0.8052   0.09457   0.08297  -0.0093   0.5213   1.0000
  11.500   0.8292   0.09558   0.08418  -0.0064   0.4997   1.0000
  11.750   0.8650   0.09359   0.08232  -0.0066   0.4957   1.0000
  12.000   0.8535   0.09654   0.08536  -0.0035   0.4773   1.0000
  12.250   0.8758   0.09592   0.08486  -0.0028   0.4699   1.0000
  12.750   0.8766   0.09933   0.08848   0.0015   0.4377   1.0000
  13.000   0.9081   0.09725   0.08652   0.0020   0.4310   1.0000
  13.250   0.9044   0.09960   0.08896   0.0042   0.4140   1.0000
  13.500   0.9112   0.10041   0.08985   0.0059   0.3980   1.0000
  13.750   0.9440   0.09807   0.08759   0.0064   0.3907   1.0000
  14.000   0.9482   0.09943   0.08902   0.0081   0.3747   1.0000
  14.250   0.9604   0.09976   0.08939   0.0094   0.3602   1.0000
  14.500   0.9899   0.09788   0.08749   0.0101   0.3489   1.0000
  14.750   1.0050   0.09797   0.08760   0.0111   0.3348   1.0000
  15.000   1.0196   0.09826   0.08789   0.0121   0.3219   1.0000
  15.250   1.0462   0.09694   0.08647   0.0127   0.3098   1.0000
  15.500   1.0450   0.09930   0.08892   0.0142   0.2946   1.0000
  15.750   1.0549   0.10021   0.08982   0.0152   0.2812   1.0000
  16.000   1.0680   0.10064   0.09017   0.0161   0.2688   1.0000
  16.250   1.0644   0.10336   0.09299   0.0172   0.2548   1.0000
  16.500   1.0691   0.10500   0.09462   0.0182   0.2416   1.0000
  16.750   1.0811   0.10551   0.09495   0.0190   0.2288   1.0000
  17.000   1.0773   0.10839   0.09793   0.0198   0.2155   1.0000
  17.250   1.0812   0.11021   0.09975   0.0205   0.2035   1.0000
  17.500   1.0874   0.11172   0.10121   0.0211   0.1924   1.0000
  17.750   1.0842   0.11472   0.10433   0.0214   0.1810   1.0000
  18.000   1.0920   0.11608   0.10559   0.0217   0.1718   1.0000
  18.250   1.0889   0.11929   0.10899   0.0217   0.1623   1.0000
  18.500   1.0943   0.12108   0.11072   0.0218   0.1542   1.0000
  18.750   1.0928   0.12420   0.11403   0.0214   0.1468   1.0000
  19.000   1.1017   0.12548   0.11519   0.0213   0.1406   1.0000
  19.250   1.0982   0.12910   0.11905   0.0206   0.1346   1.0000
