  
       XFOIL         Version 6.96
  
 Calculated polar for: NACA 6-H-10 AIRFOIL                             
  
 1 1 Reynolds number fixed          Mach number fixed         
  
 xtrf =   1.000 (top)        1.000 (bottom)  
 Mach =   0.000     Re =     0.050 e 6     Ncrit =   5.000
  
   alpha    CL        CD       CDp       CM     Top_Xtr  Bot_Xtr
  ------ -------- --------- --------- -------- -------- --------
  -8.750  -0.3496   0.11044   0.10443  -0.0160   0.7751   0.0739
  -8.500  -0.3461   0.10777   0.10177  -0.0186   0.7716   0.0764
  -8.250  -0.3484   0.10578   0.09981  -0.0225   0.7685   0.0784
  -8.000  -0.3527   0.10433   0.09840  -0.0266   0.7647   0.0792
  -7.750  -0.3537   0.10301   0.09704  -0.0306   0.7612   0.0796
  -7.500  -0.3321   0.09569   0.08980  -0.0279   0.7585   0.0827
  -7.250  -0.3246   0.09254   0.08663  -0.0286   0.7557   0.0860
  -7.000  -0.3196   0.09002   0.08407  -0.0306   0.7527   0.0897
  -6.750  -0.3179   0.08979   0.08369  -0.0362   0.7488   0.0933
  -6.500  -0.3051   0.08447   0.07845  -0.0358   0.7458   0.0955
  -6.250  -0.2936   0.08091   0.07488  -0.0356   0.7429   0.0998
  -6.000  -0.2864   0.08012   0.07384  -0.0384   0.7402   0.1075
  -5.750  -0.2737   0.07566   0.06943  -0.0386   0.7374   0.1107
  -5.500  -0.2597   0.07271   0.06640  -0.0393   0.7344   0.1185
  -5.250  -0.2480   0.06988   0.06348  -0.0401   0.7314   0.1272
  -5.000  -0.2363   0.06786   0.06127  -0.0407   0.7285   0.1394
  -4.500  -0.2108   0.06289   0.05607  -0.0401   0.7232   0.1685
  -4.250  -0.1966   0.06008   0.05323  -0.0399   0.7199   0.1848
  -3.750  -0.1330   0.05389   0.04605  -0.0416   0.7147   0.0734
  -3.500  -0.1107   0.05123   0.04300  -0.0406   0.7126   0.0580
  -3.250  -0.0864   0.04916   0.04037  -0.0392   0.7108   0.0498
  -3.000  -0.0663   0.04709   0.03810  -0.0391   0.7075   0.0476
  -2.750  -0.0450   0.04525   0.03595  -0.0385   0.7044   0.0456
  -2.500  -0.0224   0.04353   0.03385  -0.0376   0.7017   0.0445
  -2.250   0.0012   0.04202   0.03195  -0.0366   0.6993   0.0453
  -2.000   0.0264   0.04060   0.03013  -0.0358   0.6974   0.0464
  -1.750   0.0538   0.03929   0.02841  -0.0355   0.6955   0.0469
  -1.500   0.0813   0.03830   0.02711  -0.0360   0.6927   0.0468
  -1.250   0.1167   0.03720   0.02562  -0.0374   0.6901   0.0477
  -1.000   0.1736   0.03591   0.02391  -0.0423   0.6879   0.0540
  -0.750   0.2138   0.03516   0.02294  -0.0444   0.6858   0.0599
  -0.500   0.3982   0.03090   0.02065  -0.0708   0.6862   1.0000
  -0.250   0.4208   0.03140   0.02076  -0.0703   0.6841   1.0000
   0.000   0.4431   0.03192   0.02099  -0.0697   0.6825   1.0000
   0.250   0.4647   0.03277   0.02163  -0.0701   0.6797   1.0000
   0.500   0.4848   0.03365   0.02236  -0.0702   0.6764   1.0000
   0.750   0.5045   0.03441   0.02297  -0.0699   0.6734   1.0000
   1.000   0.5240   0.03512   0.02354  -0.0692   0.6711   1.0000
   1.250   0.5437   0.03581   0.02412  -0.0685   0.6691   1.0000
   1.500   0.5620   0.03661   0.02483  -0.0678   0.6666   1.0000
   1.750   0.5742   0.03790   0.02611  -0.0673   0.6623   1.0000
   2.000   0.5890   0.03886   0.02703  -0.0663   0.6589   1.0000
   2.250   0.6063   0.03959   0.02772  -0.0651   0.6560   1.0000
   2.500   0.6267   0.04007   0.02814  -0.0638   0.6534   1.0000
   2.750   0.6303   0.04145   0.02955  -0.0621   0.6456   1.0000
   3.000   0.6497   0.04186   0.02995  -0.0606   0.6412   1.0000
   3.250   0.6594   0.04280   0.03090  -0.0587   0.6351   1.0000
   3.500   0.6699   0.04368   0.03181  -0.0568   0.6293   1.0000
   3.750   0.6896   0.04416   0.03232  -0.0555   0.6259   1.0000
   4.000   0.6890   0.04561   0.03383  -0.0529   0.6193   1.0000
   4.250   0.6996   0.04650   0.03476  -0.0510   0.6143   1.0000
   4.500   0.7203   0.04697   0.03529  -0.0497   0.6111   1.0000
   4.750   0.7110   0.04863   0.03699  -0.0462   0.6031   1.0000
   5.000   0.7247   0.04940   0.03787  -0.0444   0.5988   1.0000
   5.500   0.7293   0.05157   0.04016  -0.0387   0.5863   1.0000
   5.750   0.7517   0.05207   0.04078  -0.0377   0.5826   1.0000
   6.000   0.7342   0.05356   0.04227  -0.0328   0.5735   1.0000
   6.250   0.7515   0.05427   0.04310  -0.0314   0.5693   1.0000
   6.500   0.7436   0.05573   0.04460  -0.0278   0.5614   1.0000
   6.750   0.7564   0.05661   0.04566  -0.0262   0.5560   1.0000
   7.000   0.7606   0.05779   0.04693  -0.0239   0.5492   1.0000
   7.250   0.7691   0.05884   0.04810  -0.0221   0.5423   1.0000
   7.500   0.7768   0.05974   0.04912  -0.0200   0.5338   1.0000
   7.750   0.8038   0.05879   0.04843  -0.0182   0.5218   1.0000
   8.000   0.8209   0.05779   0.04761  -0.0155   0.5056   1.0000
   8.250   0.8389   0.05649   0.04649  -0.0126   0.4882   1.0000
   8.500   0.8564   0.05533   0.04555  -0.0099   0.4716   1.0000
   8.750   0.8768   0.05379   0.04431  -0.0073   0.4542   1.0000
   9.000   0.8712   0.05489   0.04552  -0.0047   0.4324   1.0000
   9.250   0.8750   0.05499   0.04579  -0.0022   0.4053   1.0000
   9.500   0.8816   0.05517   0.04617   0.0000   0.3762   1.0000
   9.750   0.9144   0.05177   0.04289   0.0034   0.3143   1.0000
  10.250   0.9220   0.05309   0.04279   0.0094   0.1681   1.0000
  10.500   0.9210   0.05530   0.04492   0.0109   0.1500   1.0000
  10.750   0.9221   0.05741   0.04693   0.0122   0.1370   1.0000
  11.000   0.9255   0.05936   0.04883   0.0133   0.1274   1.0000
  11.250   0.9327   0.06100   0.05054   0.0145   0.1188   1.0000
  11.500   0.9414   0.06244   0.05194   0.0158   0.1129   1.0000
  11.750   0.9571   0.06331   0.05306   0.0174   0.1073   1.0000
  12.000   0.9783   0.06372   0.05358   0.0195   0.1014   1.0000
  12.250   1.0051   0.06419   0.05435   0.0216   0.0919   1.0000
  12.500   1.0062   0.06666   0.05690   0.0221   0.0799   1.0000
  12.750   1.0076   0.06928   0.05962   0.0226   0.0682   1.0000
  13.000   1.0166   0.07162   0.06208   0.0236   0.0571   1.0000
  13.250   1.0221   0.07447   0.06535   0.0244   0.0492   1.0000
  13.500   1.0255   0.07775   0.06887   0.0250   0.0432   1.0000
  13.750   1.0273   0.08131   0.07274   0.0253   0.0396   1.0000
  14.000   1.0286   0.08434   0.07579   0.0253   0.0365   1.0000
  14.250   1.0192   0.08932   0.08114   0.0247   0.0351   1.0000
  14.500   1.0078   0.09470   0.08686   0.0236   0.0342   1.0000
  14.750   0.9941   0.10042   0.09285   0.0219   0.0337   1.0000
  15.000   0.9792   0.10657   0.09923   0.0197   0.0336   1.0000
  15.250   0.9612   0.11362   0.10648   0.0166   0.0335   1.0000
  15.500   0.9438   0.12100   0.11401   0.0130   0.0339   1.0000
