  
       XFOIL         Version 6.96
  
 Calculated polar for: AH 83-159                                       
  
 1 1 Reynolds number fixed          Mach number fixed         
  
 xtrf =   1.000 (top)        1.000 (bottom)  
 Mach =   0.000     Re =     0.050 e 6     Ncrit =   5.000
  
   alpha    CL        CD       CDp       CM     Top_Xtr  Bot_Xtr
  ------ -------- --------- --------- -------- -------- --------
 -12.750  -0.2593   0.14252   0.13605  -0.0688   0.9664   0.1024
 -12.500  -0.2628   0.13975   0.13332  -0.0748   0.9613   0.1037
 -12.250  -0.2534   0.13529   0.12886  -0.0791   0.9576   0.1042
 -12.000  -0.2320   0.12988   0.12339  -0.0805   0.9533   0.1053
 -11.750  -0.1186   0.11024   0.10382  -0.0982   0.9243   0.0615
 -11.500  -0.1066   0.10663   0.10014  -0.0987   0.9204   0.0604
 -11.250  -0.0986   0.10283   0.09633  -0.1001   0.9172   0.0589
 -10.750  -0.2022   0.10011   0.09343  -0.1044   0.9311   0.0489
 -10.500  -0.1961   0.09583   0.08913  -0.1072   0.9264   0.0487
 -10.250  -0.1917   0.09195   0.08525  -0.1092   0.9210   0.0482
 -10.000  -0.1889   0.08718   0.08047  -0.1129   0.9164   0.0479
  -9.750  -0.1942   0.08292   0.07620  -0.1155   0.9101   0.0475
  -9.500  -0.1995   0.07897   0.07223  -0.1177   0.9042   0.0468
  -9.250  -0.2101   0.07547   0.06869  -0.1190   0.8982   0.0463
  -9.000  -0.2264   0.07272   0.06589  -0.1185   0.8911   0.0459
  -8.750  -0.2437   0.07024   0.06333  -0.1172   0.8848   0.0456
  -8.500  -0.2636   0.06868   0.06170  -0.1140   0.8774   0.0452
  -8.250  -0.2745   0.06603   0.05887  -0.1124   0.8725   0.0449
  -8.000  -0.2936   0.06484   0.05759  -0.1080   0.8652   0.0446
  -7.750  -0.3017   0.06238   0.05489  -0.1057   0.8604   0.0443
  -7.500  -0.3110   0.06047   0.05276  -0.1023   0.8550   0.0440
  -7.250  -0.3190   0.05875   0.05082  -0.0987   0.8492   0.0438
  -7.000  -0.3167   0.05623   0.04795  -0.0966   0.8454   0.0437
  -6.750  -0.3190   0.05442   0.04584  -0.0932   0.8408   0.0436
  -6.500  -0.3204   0.05284   0.04395  -0.0896   0.8355   0.0436
  -6.250  -0.3094   0.05060   0.04129  -0.0879   0.8319   0.0439
  -6.000  -0.2911   0.04825   0.03848  -0.0870   0.8294   0.0446
  -5.750  -0.2937   0.04743   0.03742  -0.0827   0.8239   0.0453
  -5.500  -0.2800   0.04601   0.03557  -0.0807   0.8200   0.0472
  -5.250  -0.2574   0.04434   0.03350  -0.0800   0.8172   0.0499
  -5.000  -0.2298   0.04282   0.03183  -0.0802   0.8151   0.0527
  -4.750  -0.2252   0.04231   0.03120  -0.0767   0.8103   0.0543
  -4.500  -0.2087   0.04154   0.03022  -0.0747   0.8065   0.0574
  -4.250  -0.1823   0.04067   0.02917  -0.0741   0.8037   0.0637
  -4.000  -0.1524   0.03986   0.02825  -0.0741   0.8015   0.0712
  -3.750  -0.1345   0.03934   0.02765  -0.0725   0.7985   0.0803
  -3.500  -0.1360   0.03935   0.02759  -0.0681   0.7931   0.0877
  -3.250  -0.1201   0.03880   0.02702  -0.0664   0.7896   0.1028
  -3.000  -0.1014   0.03785   0.02632  -0.0653   0.7870   0.1397
  -2.500  -0.1139   0.03577   0.02708  -0.0535   0.7786   0.5731
  -2.250  -0.1100   0.03747   0.02894  -0.0454   0.7748   0.7877
  -2.000   0.0893   0.04014   0.03051  -0.0681   0.7795   0.9480
  -1.750   0.1302   0.04026   0.03032  -0.0717   0.7764   0.9593
  -1.500   0.1726   0.04033   0.03007  -0.0756   0.7738   0.9678
  -1.250   0.2171   0.04035   0.02982  -0.0797   0.7717   0.9744
  -1.000   0.2325   0.04085   0.03019  -0.0794   0.7667   0.9830
  -0.750   0.2585   0.04121   0.03037  -0.0808   0.7622   0.9896
  -0.500   0.2912   0.04145   0.03045  -0.0829   0.7591   0.9951
  -0.250   0.3293   0.04161   0.03042  -0.0859   0.7568   0.9996
   0.000   0.3064   0.04253   0.03133  -0.0788   0.7491   1.0000
   0.250   0.3159   0.04292   0.03163  -0.0766   0.7449   1.0000
   0.500   0.3375   0.04316   0.03175  -0.0762   0.7420   1.0000
   0.750   0.3153   0.04400   0.03259  -0.0694   0.7340   1.0000
   1.000   0.3278   0.04437   0.03287  -0.0676   0.7299   1.0000
   1.250   0.3510   0.04461   0.03300  -0.0673   0.7270   1.0000
   1.500   0.3284   0.04544   0.03383  -0.0605   0.7186   1.0000
   1.750   0.3447   0.04575   0.03406  -0.0592   0.7146   1.0000
   2.000   0.3426   0.04631   0.03459  -0.0553   0.7085   1.0000
   2.250   0.3461   0.04678   0.03502  -0.0523   0.7026   1.0000
   2.500   0.3666   0.04705   0.03523  -0.0515   0.6991   1.0000
   2.750   0.3549   0.04771   0.03587  -0.0464   0.6912   1.0000
   3.000   0.3694   0.04803   0.03615  -0.0448   0.6864   1.0000
   3.250   0.3755   0.04850   0.03659  -0.0422   0.6808   1.0000
   3.500   0.3778   0.04899   0.03707  -0.0391   0.6739   1.0000
   3.750   0.4005   0.04926   0.03731  -0.0386   0.6702   1.0000
   4.000   0.3950   0.05001   0.03806  -0.0348   0.6616   1.0000
   4.250   0.4171   0.05038   0.03841  -0.0344   0.6571   1.0000
   4.750   0.4432   0.05165   0.03968  -0.0320   0.6439   1.0000
   5.000   0.4602   0.05229   0.04034  -0.0314   0.6377   1.0000
   5.250   0.4753   0.05300   0.04109  -0.0306   0.6304   1.0000
   5.500   0.5064   0.05329   0.04141  -0.0313   0.6268   1.0000
   5.750   0.5104   0.05443   0.04259  -0.0298   0.6167   1.0000
   6.000   0.5419   0.05468   0.04289  -0.0305   0.6127   1.0000
   6.250   0.5475   0.05587   0.04416  -0.0292   0.6024   1.0000
   6.500   0.5793   0.05609   0.04445  -0.0300   0.5985   1.0000
   6.750   0.5855   0.05736   0.04579  -0.0289   0.5879   1.0000
   7.000   0.6182   0.05750   0.04602  -0.0296   0.5840   1.0000
   7.250   0.6240   0.05887   0.04750  -0.0286   0.5730   1.0000
   7.500   0.6399   0.05981   0.04854  -0.0283   0.5645   1.0000
   7.750   0.6641   0.06029   0.04913  -0.0285   0.5577   1.0000
   8.000   0.6752   0.06152   0.05046  -0.0279   0.5477   1.0000
   8.250   0.7054   0.06160   0.05071  -0.0283   0.5423   1.0000
   8.500   0.7138   0.06305   0.05228  -0.0277   0.5312   1.0000
   8.750   0.7471   0.06284   0.05223  -0.0282   0.5266   1.0000
   9.000   0.7549   0.06435   0.05386  -0.0275   0.5148   1.0000
   9.250   0.7657   0.06568   0.05534  -0.0270   0.5037   1.0000
   9.500   0.7990   0.06526   0.05514  -0.0273   0.4987   1.0000
   9.750   0.8075   0.06677   0.05680  -0.0267   0.4865   1.0000
  10.000   0.8191   0.06807   0.05825  -0.0263   0.4750   1.0000
  10.250   0.8542   0.06716   0.05758  -0.0263   0.4696   1.0000
  10.500   0.8636   0.06859   0.05921  -0.0257   0.4569   1.0000
  10.750   0.8753   0.06981   0.06060  -0.0252   0.4446   1.0000
  11.000   0.8907   0.07062   0.06161  -0.0247   0.4330   1.0000
  11.250   0.9277   0.06878   0.06005  -0.0241   0.4265   1.0000
  11.500   0.9412   0.06952   0.06100  -0.0234   0.4132   1.0000
  12.000   0.9773   0.06966   0.06163  -0.0217   0.3860   1.0000
  12.500   1.0309   0.06693   0.05936  -0.0193   0.3538   1.0000
  12.750   1.0380   0.06822   0.06080  -0.0185   0.3313   1.0000
  13.000   1.0547   0.06811   0.06081  -0.0173   0.3050   1.0000
  13.250   1.0638   0.06913   0.06184  -0.0163   0.2750   1.0000
  13.500   1.0677   0.07097   0.06359  -0.0156   0.2426   1.0000
  13.750   1.0676   0.07350   0.06597  -0.0150   0.2109   1.0000
  14.000   1.0641   0.07670   0.06899  -0.0148   0.1819   1.0000
  14.250   1.0587   0.08041   0.07254  -0.0149   0.1563   1.0000
  14.500   1.0533   0.08430   0.07630  -0.0152   0.1346   1.0000
  14.750   1.0477   0.08834   0.08021  -0.0156   0.1168   1.0000
  15.000   1.0435   0.09231   0.08407  -0.0162   0.1024   1.0000
  15.250   1.0413   0.09610   0.08782  -0.0168   0.0903   1.0000
  15.500   1.0408   0.09976   0.09149  -0.0174   0.0800   1.0000
  15.750   1.0412   0.10330   0.09505  -0.0180   0.0715   1.0000
  16.000   1.0427   0.10666   0.09839  -0.0188   0.0648   1.0000
  16.250   1.0455   0.11009   0.10205  -0.0195   0.0582   1.0000
  16.500   1.0493   0.11312   0.10507  -0.0202   0.0535   1.0000
  16.750   1.0528   0.11658   0.10876  -0.0211   0.0492   1.0000
  17.000   1.0552   0.12023   0.11260  -0.0222   0.0455   1.0000
  17.250   1.0611   0.12304   0.11545  -0.0230   0.0428   1.0000
  17.500   1.0622   0.12712   0.11973  -0.0244   0.0405   1.0000
  17.750   1.0566   0.13272   0.12567  -0.0270   0.0388   1.0000
  18.000   1.0502   0.13855   0.13176  -0.0299   0.0377   1.0000
  18.250   1.0414   0.14507   0.13853  -0.0335   0.0367   1.0000
  18.500   1.0299   0.15249   0.14618  -0.0378   0.0362   1.0000
  18.750   1.0129   0.16190   0.15580  -0.0434   0.0365   1.0000
  19.000   0.9887   0.17437   0.16843  -0.0509   0.0374   1.0000
