  
       XFOIL         Version 6.96
  
 Calculated polar for: DRAGONFLY CANARD                                
  
 1 1 Reynolds number fixed          Mach number fixed         
  
 xtrf =   1.000 (top)        1.000 (bottom)  
 Mach =   0.000     Re =     0.050 e 6     Ncrit =   5.000
  
   alpha    CL        CD       CDp       CM     Top_Xtr  Bot_Xtr
  ------ -------- --------- --------- -------- -------- --------
 -14.500  -0.0272   0.15317   0.14513  -0.0945   0.7317   0.1038
 -14.250  -0.0328   0.15286   0.14484  -0.0968   0.7301   0.1059
 -14.000  -0.0406   0.15250   0.14453  -0.0991   0.7286   0.1066
 -13.750  -0.0173   0.14641   0.13839  -0.0995   0.7266   0.1080
 -13.500   0.0004   0.14232   0.13431  -0.1002   0.7241   0.1105
 -13.250   0.0102   0.13953   0.13154  -0.1012   0.7218   0.1134
 -13.000   0.0163   0.13719   0.12922  -0.1025   0.7196   0.1163
 -12.750   0.0147   0.13573   0.12779  -0.1041   0.7176   0.1200
 -12.500   0.0030   0.13522   0.12734  -0.1063   0.7160   0.1216
 -12.250   0.0175   0.13092   0.12302  -0.1067   0.7140   0.1235
 -12.000   0.0377   0.12729   0.11930  -0.1065   0.7120   0.1283
 -11.750   0.0430   0.12509   0.11712  -0.1075   0.7101   0.1326
 -11.500   0.0286   0.12461   0.11675  -0.1100   0.7084   0.1372
 -11.250   0.0172   0.12349   0.11572  -0.1123   0.7067   0.1379
 -11.000   0.0429   0.11854   0.11076  -0.1120   0.7045   0.1396
 -10.750   0.0554   0.11553   0.10774  -0.1124   0.7025   0.1413
 -10.500   0.0625   0.11297   0.10517  -0.1131   0.7006   0.1427
 -10.250   0.0662   0.11049   0.10270  -0.1138   0.6988   0.1433
 -10.000   0.0302   0.10175   0.09396  -0.1218   0.6979   0.0785
  -9.750   0.0447   0.09928   0.09145  -0.1210   0.6962   0.0771
  -9.500   0.0469   0.09664   0.08882  -0.1217   0.6944   0.0763
  -9.250   0.0460   0.09411   0.08637  -0.1226   0.6919   0.0755
  -9.000   0.0425   0.09149   0.08383  -0.1236   0.6896   0.0748
  -8.750   0.0371   0.08875   0.08115  -0.1247   0.6875   0.0740
  -8.500   0.0277   0.08571   0.07817  -0.1261   0.6856   0.0733
  -8.250   0.0118   0.08221   0.07473  -0.1280   0.6837   0.0719
  -8.000  -0.0136   0.07944   0.07197  -0.1276   0.6818   0.0706
  -7.500  -0.1005   0.07467   0.06682  -0.1217   0.6769   0.0667
  -7.250  -0.1174   0.07433   0.06649  -0.1180   0.6730   0.0665
  -7.000  -0.1319   0.07347   0.06555  -0.1146   0.6700   0.0664
  -6.750  -0.1425   0.07231   0.06427  -0.1114   0.6676   0.0663
  -6.500  -0.1490   0.07083   0.06261  -0.1085   0.6657   0.0661
  -6.250  -0.1512   0.06900   0.06054  -0.1059   0.6640   0.0659
  -6.000  -0.1757   0.06978   0.06132  -0.1003   0.6598   0.0658
  -5.750  -0.2006   0.07044   0.06196  -0.0946   0.6553   0.0657
  -5.500  -0.2134   0.06985   0.06122  -0.0902   0.6526   0.0656
  -5.250  -0.2165   0.06868   0.05980  -0.0871   0.6506   0.0655
  -5.000  -0.2110   0.06706   0.05784  -0.0848   0.6489   0.0655
  -4.750  -0.1987   0.06523   0.05559  -0.0832   0.6474   0.0657
  -4.500  -0.2215   0.06603   0.05633  -0.0777   0.6431   0.0657
  -4.250  -0.2257   0.06571   0.05573  -0.0743   0.6403   0.0662
  -4.000  -0.2210   0.06506   0.05480  -0.0719   0.6383   0.0671
  -3.750  -0.2105   0.06444   0.05406  -0.0704   0.6363   0.0684
  -3.500  -0.1950   0.06379   0.05324  -0.0693   0.6344   0.0701
  -3.250  -0.1746   0.06292   0.05206  -0.0684   0.6326   0.0713
  -3.000  -0.1499   0.06199   0.05079  -0.0679   0.6311   0.0723
  -2.750  -0.1517   0.06245   0.05109  -0.0650   0.6281   0.0729
  -2.500  -0.1468   0.06268   0.05115  -0.0628   0.6258   0.0739
  -2.250  -0.1359   0.06274   0.05100  -0.0611   0.6234   0.0753
  -2.000  -0.1198   0.06273   0.05074  -0.0599   0.6209   0.0775
  -1.750  -0.0997   0.06255   0.05046  -0.0592   0.6187   0.0804
  -1.500  -0.0771   0.06247   0.05032  -0.0588   0.6169   0.0838
  -1.250  -0.0507   0.06245   0.05013  -0.0587   0.6154   0.0872
  -1.000  -0.0410   0.06304   0.05057  -0.0571   0.6132   0.0898
  -0.750  -0.0375   0.06383   0.05122  -0.0551   0.6098   0.0921
  -0.500  -0.0249   0.06423   0.05165  -0.0541   0.6069   0.0973
  -0.250  -0.0072   0.06465   0.05193  -0.0533   0.6044   0.1052
   0.000   0.0126   0.06499   0.05225  -0.0529   0.6025   0.1148
   0.250   0.0364   0.06525   0.05249  -0.0529   0.6008   0.1337
   0.500   0.0661   0.06472   0.05275  -0.0540   0.5993   0.2616
   0.750   0.1325   0.06529   0.05566  -0.0648   0.5951   1.0000
   1.000   0.1391   0.06637   0.05648  -0.0630   0.5918   1.0000
   1.250   0.1517   0.06743   0.05728  -0.0619   0.5894   1.0000
   1.500   0.1691   0.06840   0.05796  -0.0611   0.5871   1.0000
   1.750   0.1917   0.06929   0.05857  -0.0608   0.5850   1.0000
   2.000   0.2029   0.07042   0.05949  -0.0596   0.5818   1.0000
   2.250   0.2040   0.07174   0.06069  -0.0578   0.5779   1.0000
   2.500   0.2154   0.07295   0.06173  -0.0568   0.5751   1.0000
   2.750   0.2327   0.07401   0.06260  -0.0562   0.5724   1.0000
   3.000   0.2551   0.07501   0.06340  -0.0560   0.5700   1.0000
   3.250   0.2719   0.07615   0.06436  -0.0555   0.5672   1.0000
   3.500   0.2706   0.07764   0.06578  -0.0537   0.5629   1.0000
   3.750   0.2826   0.07889   0.06692  -0.0529   0.5598   1.0000
   4.000   0.3009   0.08003   0.06792  -0.0525   0.5569   1.0000
   4.250   0.3248   0.08108   0.06881  -0.0525   0.5545   1.0000
   4.500   0.3306   0.08250   0.07016  -0.0514   0.5505   1.0000
   4.750   0.3364   0.08398   0.07158  -0.0503   0.5469   1.0000
   5.000   0.3513   0.08524   0.07275  -0.0498   0.5435   1.0000
   5.250   0.3725   0.08639   0.07379  -0.0497   0.5408   1.0000
   5.500   0.3984   0.08752   0.07481  -0.0500   0.5387   1.0000
   5.750   0.3911   0.08929   0.07658  -0.0482   0.5334   1.0000
   6.000   0.4034   0.09068   0.07792  -0.0476   0.5297   1.0000
   6.250   0.4233   0.09187   0.07903  -0.0475   0.5266   1.0000
   6.500   0.4486   0.09302   0.08010  -0.0478   0.5244   1.0000
   6.750   0.4441   0.09485   0.08195  -0.0463   0.5191   1.0000
   7.000   0.4558   0.09633   0.08341  -0.0459   0.5153   1.0000
   7.250   0.4751   0.09759   0.08462  -0.0458   0.5122   1.0000
   7.500   0.5001   0.09876   0.08574  -0.0461   0.5099   1.0000
   7.750   0.4948   0.10070   0.08771  -0.0448   0.5039   1.0000
   8.000   0.5080   0.10220   0.08921  -0.0445   0.5002   1.0000
   8.250   0.5286   0.10343   0.09042  -0.0446   0.4972   1.0000
   8.500   0.5409   0.10497   0.09195  -0.0442   0.4933   1.0000
   8.750   0.5445   0.10680   0.09381  -0.0436   0.4882   1.0000
   9.000   0.5604   0.10823   0.09526  -0.0435   0.4846   1.0000
   9.250   0.5831   0.10943   0.09646  -0.0437   0.4819   1.0000
   9.500   0.5832   0.11141   0.09848  -0.0430   0.4760   1.0000
   9.750   0.5947   0.11305   0.10015  -0.0428   0.4719   1.0000
  10.000   0.6147   0.11432   0.10145  -0.0429   0.4686   1.0000
  10.250   0.6241   0.11603   0.10320  -0.0426   0.4641   1.0000
  10.500   0.6305   0.11785   0.10507  -0.0424   0.4586   1.0000
  10.750   0.6479   0.11925   0.10651  -0.0424   0.4551   1.0000
  11.000   0.6686   0.12049   0.10779  -0.0426   0.4519   1.0000
  11.250   0.6658   0.12275   0.11013  -0.0421   0.4450   1.0000
  11.500   0.6824   0.12418   0.11161  -0.0422   0.4412   1.0000
  11.750   0.7063   0.12526   0.11274  -0.0424   0.4385   1.0000
  12.000   0.7009   0.12769   0.11525  -0.0421   0.4308   1.0000
  12.250   0.7179   0.12906   0.11671  -0.0422   0.4268   1.0000
  12.500   0.7397   0.13022   0.11793  -0.0424   0.4238   1.0000
  12.750   0.7355   0.13269   0.12050  -0.0422   0.4160   1.0000
  13.000   0.7545   0.13388   0.12176  -0.0424   0.4120   1.0000
  13.250   0.7623   0.13579   0.12378  -0.0424   0.4066   1.0000
  13.500   0.7707   0.13761   0.12569  -0.0426   0.4004   1.0000
  13.750   0.7920   0.13861   0.12678  -0.0427   0.3968   1.0000
  14.000   0.7922   0.14101   0.12928  -0.0429   0.3895   1.0000
  14.250   0.8074   0.14237   0.13076  -0.0430   0.3844   1.0000
  14.500   0.8325   0.14302   0.13152  -0.0432   0.3812   1.0000
  14.750   0.8261   0.14591   0.13451  -0.0435   0.3721   1.0000
  15.000   0.8474   0.14675   0.13547  -0.0436   0.3681   1.0000
