  
       XFOIL         Version 6.96
  
 Calculated polar for: SIKORSKY DBLN-526 AIRFOIL                       
  
 1 1 Reynolds number fixed          Mach number fixed         
  
 xtrf =   1.000 (top)        1.000 (bottom)  
 Mach =   0.000     Re =     0.100 e 6     Ncrit =   5.000
  
   alpha    CL        CD       CDp       CM     Top_Xtr  Bot_Xtr
  ------ -------- --------- --------- -------- -------- --------
 -15.500  -0.7334   0.10851   0.10187  -0.1081   0.9723   0.0560
 -15.250  -0.7964   0.09846   0.09144  -0.1081   0.9692   0.0559
 -15.000  -0.8297   0.09246   0.08512  -0.1074   0.9672   0.0560
 -14.750  -0.8653   0.08775   0.08016  -0.1028   0.9622   0.0563
 -14.500  -0.8875   0.08360   0.07570  -0.1000   0.9596   0.0563
 -14.250  -0.9126   0.08005   0.07186  -0.0951   0.9552   0.0568
 -14.000  -0.9299   0.07706   0.06860  -0.0908   0.9516   0.0572
 -13.750  -0.9411   0.07416   0.06538  -0.0871   0.9495   0.0575
 -13.500  -0.9688   0.07178   0.06270  -0.0792   0.9442   0.0584
 -13.250  -0.9841   0.06964   0.06021  -0.0733   0.9408   0.0590
 -13.000  -0.9879   0.06739   0.05761  -0.0693   0.9388   0.0593
 -12.750  -0.9959   0.06617   0.05631  -0.0637   0.9330   0.0597
 -12.500  -0.9825   0.06485   0.05497  -0.0623   0.9303   0.0607
 -12.250  -0.9700   0.06356   0.05358  -0.0609   0.9283   0.0617
 -12.000  -0.9536   0.06212   0.05196  -0.0600   0.9268   0.0623
 -11.750  -0.9574   0.06097   0.05069  -0.0547   0.9210   0.0628
 -11.500  -0.9459   0.05972   0.04925  -0.0526   0.9181   0.0640
 -11.250  -0.9276   0.05845   0.04777  -0.0519   0.9160   0.0651
 -10.750  -0.9010   0.05619   0.04508  -0.0479   0.9088   0.0674
 -10.500  -0.8824   0.05533   0.04428  -0.0471   0.9056   0.0689
 -10.250  -0.8578   0.05444   0.04330  -0.0475   0.9035   0.0695
 -10.000  -0.8319   0.05354   0.04233  -0.0481   0.9020   0.0711
  -9.750  -0.8043   0.05268   0.04135  -0.0489   0.9007   0.0728
  -9.500  -0.8020   0.05215   0.04076  -0.0443   0.8945   0.0734
  -9.250  -0.7831   0.05148   0.03994  -0.0433   0.8915   0.0760
  -9.000  -0.7579   0.05074   0.03920  -0.0437   0.8897   0.0769
  -8.750  -0.7343   0.05008   0.03856  -0.0438   0.8881   0.0795
  -8.500  -0.7068   0.04942   0.03783  -0.0446   0.8868   0.0814
  -8.250  -0.7084   0.04914   0.03751  -0.0392   0.8798   0.0829
  -8.000  -0.6874   0.04854   0.03683  -0.0385   0.8770   0.0853
  -7.750  -0.6655   0.04790   0.03622  -0.0381   0.8749   0.0875
  -7.500  -0.6408   0.04725   0.03555  -0.0382   0.8733   0.0902
  -7.250  -0.6152   0.04672   0.03495  -0.0385   0.8721   0.0943
  -7.000  -0.6215   0.04678   0.03501  -0.0321   0.8647   0.0953
  -6.750  -0.6038   0.04637   0.03466  -0.0308   0.8619   0.1003
  -6.500  -0.5823   0.04596   0.03421  -0.0302   0.8600   0.1058
  -6.250  -0.5591   0.04553   0.03382  -0.0300   0.8584   0.1110
  -6.000  -0.5346   0.04509   0.03342  -0.0300   0.8571   0.1219
  -5.750  -0.5341   0.04531   0.03363  -0.0251   0.8514   0.1312
  -5.500  -0.5189   0.04511   0.03349  -0.0232   0.8476   0.1415
  -5.250  -0.4978   0.04475   0.03320  -0.0226   0.8451   0.1586
  -5.000  -0.4741   0.04440   0.03301  -0.0225   0.8432   0.1827
  -4.750  -0.4475   0.04421   0.03288  -0.0230   0.8418   0.2133
  -4.500  -0.4193   0.04407   0.03267  -0.0238   0.8406   0.2384
  -4.250  -0.4149   0.04451   0.03310  -0.0199   0.8356   0.2511
  -4.000  -0.4028   0.04446   0.03317  -0.0175   0.8314   0.2707
  -3.750  -0.3854   0.04367   0.03299  -0.0163   0.8285   0.3280
  -3.500  -0.3669   0.04293   0.03293  -0.0150   0.8266   0.4912
  -3.250  -0.3313   0.04278   0.03399  -0.0161   0.8251   0.6922
  -3.000  -0.3127   0.04220   0.03321  -0.0145   0.8233   0.7525
  -2.750  -0.2210   0.04471   0.03610  -0.0279   0.8230   0.8057
  -2.500  -0.1901   0.04605   0.03742  -0.0291   0.8182   0.8272
  -2.250  -0.1678   0.04709   0.03842  -0.0285   0.8125   0.8449
  -2.000  -0.1281   0.04792   0.03917  -0.0315   0.8098   0.8564
  -1.750  -0.0944   0.04813   0.03928  -0.0332   0.8073   0.8665
  -1.500  -0.0511   0.04866   0.03971  -0.0368   0.8056   0.8767
  -1.250  -0.0118   0.04884   0.03978  -0.0396   0.8040   0.8855
  -1.000  -0.0069   0.05013   0.04107  -0.0358   0.7965   0.8976
  -0.750   0.0191   0.05091   0.04179  -0.0364   0.7921   0.9044
  -0.500   0.0476   0.05124   0.04205  -0.0372   0.7892   0.9145
  -0.250   0.0795   0.05132   0.04205  -0.0385   0.7868   0.9255
   0.000   0.1205   0.05165   0.04231  -0.0421   0.7852   0.9307
   0.250   0.1566   0.05161   0.04220  -0.0444   0.7837   0.9390
   0.750   0.1899   0.05385   0.04442  -0.0425   0.7702   0.9521
   1.000   0.2235   0.05407   0.04459  -0.0445   0.7677   0.9590
   1.250   0.2646   0.05414   0.04462  -0.0483   0.7659   0.9627
   1.500   0.3019   0.05415   0.04459  -0.0511   0.7644   0.9690
   2.000   0.3358   0.05599   0.04644  -0.0496   0.7500   0.9779
   2.250   0.3723   0.05577   0.04619  -0.0524   0.7474   0.9801
   2.500   0.4113   0.05565   0.04605  -0.0556   0.7457   0.9842
   2.750   0.4522   0.05534   0.04572  -0.0592   0.7443   0.9869
   3.250   0.4933   0.05692   0.04734  -0.0593   0.7283   0.9929
   3.500   0.5354   0.05667   0.04710  -0.0633   0.7264   0.9951
   3.750   0.5760   0.05638   0.04681  -0.0668   0.7249   0.9970
   4.250   0.6159   0.05769   0.04822  -0.0669   0.7080   0.9987
   4.500   0.6539   0.05714   0.04769  -0.0698   0.7057   0.9994
   4.750   0.6897   0.05645   0.04703  -0.0722   0.7040   1.0000
   5.250   0.6971   0.05794   0.04855  -0.0651   0.6858   1.0000
   5.500   0.7239   0.05723   0.04785  -0.0653   0.6837   1.0000
   5.750   0.7540   0.05628   0.04691  -0.0660   0.6821   1.0000
   6.250   0.7623   0.05800   0.04867  -0.0592   0.6632   1.0000
   6.500   0.7512   0.06036   0.05107  -0.0539   0.6501   1.0000
   6.750   0.7726   0.06004   0.05078  -0.0532   0.6457   1.0000
   7.000   0.8020   0.05897   0.04973  -0.0535   0.6429   1.0000
   7.250   0.8302   0.05798   0.04876  -0.0536   0.6394   1.0000
   7.750   0.8528   0.05869   0.04954  -0.0489   0.6219   1.0000
   8.250   0.8729   0.05980   0.05072  -0.0442   0.6042   1.0000
   8.500   0.9069   0.05837   0.04931  -0.0451   0.6011   1.0000
   8.750   0.8983   0.06064   0.05164  -0.0404   0.5879   1.0000
   9.000   0.9248   0.06002   0.05107  -0.0405   0.5845   1.0000
   9.250   0.9579   0.05880   0.04988  -0.0414   0.5817   1.0000
   9.500   0.9526   0.06085   0.05200  -0.0372   0.5693   1.0000
   9.750   0.9832   0.05982   0.05102  -0.0377   0.5648   1.0000
  10.000   1.0138   0.05876   0.04998  -0.0382   0.5594   1.0000
  10.250   1.0172   0.06010   0.05141  -0.0353   0.5489   1.0000
  10.500   1.0583   0.05813   0.04943  -0.0371   0.5424   1.0000
  10.750   1.0659   0.05899   0.05033  -0.0345   0.5293   1.0000
  11.000   1.1054   0.05725   0.04856  -0.0362   0.5202   1.0000
  11.250   1.1088   0.05857   0.04998  -0.0332   0.5091   1.0000
  11.500   1.1378   0.05770   0.04909  -0.0336   0.4972   1.0000
  11.750   1.1327   0.05972   0.05123  -0.0295   0.4837   1.0000
  12.000   1.1393   0.06064   0.05217  -0.0270   0.4669   1.0000
  12.250   1.1407   0.06207   0.05363  -0.0239   0.4495   1.0000
  12.500   1.1280   0.06477   0.05641  -0.0193   0.4257   1.0000
  12.750   1.1278   0.06645   0.05809  -0.0163   0.4014   1.0000
  13.000   1.1396   0.06684   0.05828  -0.0144   0.3723   1.0000
  13.250   1.1445   0.06793   0.05915  -0.0119   0.3444   1.0000
  13.500   1.1454   0.06944   0.06047  -0.0091   0.3208   1.0000
  13.750   1.1472   0.07103   0.06196  -0.0067   0.3041   1.0000
  14.000   1.1462   0.07291   0.06377  -0.0041   0.2861   1.0000
  14.250   1.1462   0.07478   0.06560  -0.0017   0.2707   1.0000
  14.500   1.1480   0.07657   0.06740   0.0003   0.2577   1.0000
  14.750   1.1465   0.07865   0.06943   0.0026   0.2430   1.0000
  15.000   1.1476   0.08053   0.07126   0.0045   0.2318   1.0000
  15.250   1.1480   0.08251   0.07323   0.0063   0.2200   1.0000
  15.500   1.1482   0.08450   0.07516   0.0081   0.2090   1.0000
  15.750   1.1514   0.08636   0.07711   0.0095   0.1989   1.0000
  16.000   1.1529   0.08830   0.07902   0.0109   0.1898   1.0000
  16.250   1.1550   0.09038   0.08120   0.0121   0.1786   1.0000
  16.500   1.1552   0.09265   0.08351   0.0133   0.1671   1.0000
  16.750   1.1548   0.09504   0.08590   0.0145   0.1566   1.0000
  17.000   1.1550   0.09744   0.08835   0.0154   0.1443   1.0000
  17.250   1.1546   0.09993   0.09084   0.0162   0.1336   1.0000
  17.500   1.1539   0.10248   0.09337   0.0169   0.1261   1.0000
  17.750   1.1552   0.10485   0.09578   0.0174   0.1179   1.0000
  18.000   1.1558   0.10733   0.09825   0.0179   0.1122   1.0000
  18.250   1.1579   0.10966   0.10060   0.0181   0.1069   1.0000
  18.500   1.1566   0.11243   0.10333   0.0184   0.1018   1.0000
  18.750   1.1610   0.11455   0.10552   0.0184   0.0979   1.0000
  19.000   1.1633   0.11691   0.10791   0.0183   0.0941   1.0000
  19.250   1.1663   0.11918   0.11016   0.0182   0.0913   1.0000
